<?xml version="1.0" ?>
<routes>
	<vType accel="1.0" decel="4.5" id="standard_car" length="5.0" minGap="2.5" maxSpeed="25" sigma="0.5"/>
	<trip id="0" depart="22.0" from="ce4" to="ce7" type="standard_car" departLane="random" departSpeed="10"/>
	<trip id="1" depart="23.0" from="ce8" to="ce5" type="standard_car" departLane="random" departSpeed="10"/>
	<trip id="2" depart="32.0" from="ce6" to="ce1" type="standard_car" departLane="random" departSpeed="10"/>
	<trip id="3" depart="43.0" from="ce8" to="ce7" type="standard_car" departLane="random" departSpeed="10"/>
	<trip id="4" depart="57.0" from="ce8" to="ce5" type="standard_car" departLane="random" departSpeed="10"/>
	<trip id="5" depart="63.0" from="ce8" to="ce1" type="standard_car" departLane="random" departSpeed="10"/>
	<trip id="6" depart="68.0" from="ce8" to="ce5" type="standard_car" departLane="random" departSpeed="10"/>
	<trip id="7" depart="77.0" from="ce6" to="ce7" type="standard_car" departLane="random" departSpeed="10"/>
	<trip id="8" depart="77.0" from="ce8" to="ce1" type="standard_car" departLane="random" departSpeed="10"/>
	<trip id="9" depart="98.0" from="ce6" to="ce1" type="standard_car" departLane="random" departSpeed="10"/>
	<trip id="10" depart="107.0" from="ce4" to="ce5" type="standard_car" departLane="random" departSpeed="10"/>
	<trip id="11" depart="111.0" from="ce6" to="ce3" type="standard_car" departLane="random" departSpeed="10"/>
	<trip id="12" depart="112.0" from="ce6" to="ce7" type="standard_car" departLane="random" departSpeed="10"/>
	<trip id="13" depart="122.0" from="ce4" to="ce1" type="standard_car" departLane="random" departSpeed="10"/>
	<trip id="14" depart="136.0" from="ce8" to="ce5" type="standard_car" departLane="random" departSpeed="10"/>
	<trip id="15" depart="144.0" from="ce4" to="ce5" type="standard_car" departLane="random" departSpeed="10"/>
	<trip id="16" depart="154.0" from="ce4" to="ce3" type="standard_car" departLane="random" departSpeed="10"/>
	<trip id="17" depart="159.0" from="ce6" to="ce1" type="standard_car" departLane="random" departSpeed="10"/>
	<trip id="18" depart="175.0" from="ce4" to="ce1" type="standard_car" departLane="random" departSpeed="10"/>
	<trip id="19" depart="189.0" from="ce6" to="ce3" type="standard_car" departLane="random" departSpeed="10"/>
	<trip id="20" depart="206.0" from="ce4" to="ce3" type="standard_car" departLane="random" departSpeed="10"/>
	<trip id="21" depart="208.0" from="ce6" to="ce7" type="standard_car" departLane="random" departSpeed="10"/>
	<trip id="22" depart="212.0" from="ce8" to="ce3" type="standard_car" departLane="random" departSpeed="10"/>
	<trip id="23" depart="222.0" from="ce8" to="ce3" type="standard_car" departLane="random" departSpeed="10"/>
	<trip id="24" depart="229.0" from="ce6" to="ce7" type="standard_car" departLane="random" departSpeed="10"/>
	<trip id="25" depart="234.0" from="ce8" to="ce5" type="standard_car" departLane="random" departSpeed="10"/>
	<trip id="26" depart="244.0" from="ce8" to="ce5" type="standard_car" departLane="random" departSpeed="10"/>
	<trip id="27" depart="246.0" from="ce8" to="ce5" type="standard_car" departLane="random" departSpeed="10"/>
	<trip id="28" depart="260.0" from="ce2" to="ce5" type="standard_car" departLane="random" departSpeed="10"/>
	<trip id="29" depart="265.0" from="ce8" to="ce1" type="standard_car" departLane="random" departSpeed="10"/>
	<trip id="30" depart="266.0" from="ce6" to="ce7" type="standard_car" departLane="random" departSpeed="10"/>
	<trip id="31" depart="270.0" from="ce4" to="ce1" type="standard_car" departLane="random" departSpeed="10"/>
	<trip id="32" depart="280.0" from="ce6" to="ce7" type="standard_car" departLane="random" departSpeed="10"/>
	<trip id="33" depart="294.0" from="ce4" to="ce1" type="standard_car" departLane="random" departSpeed="10"/>
	<trip id="34" depart="298.0" from="ce4" to="ce5" type="standard_car" departLane="random" departSpeed="10"/>
	<trip id="35" depart="298.0" from="ce6" to="ce7" type="standard_car" departLane="random" departSpeed="10"/>
	<trip id="36" depart="299.0" from="ce8" to="ce3" type="standard_car" departLane="random" departSpeed="10"/>
	<trip id="37" depart="305.0" from="ce6" to="ce7" type="standard_car" departLane="random" departSpeed="10"/>
	<trip id="38" depart="313.0" from="ce6" to="ce5" type="standard_car" departLane="random" departSpeed="10"/>
	<trip id="39" depart="320.0" from="ce4" to="ce5" type="standard_car" departLane="random" departSpeed="10"/>
	<trip id="40" depart="322.0" from="ce8" to="ce1" type="standard_car" departLane="random" departSpeed="10"/>
	<trip id="41" depart="327.0" from="ce6" to="ce5" type="standard_car" departLane="random" departSpeed="10"/>
	<trip id="42" depart="358.0" from="ce8" to="ce1" type="standard_car" departLane="random" departSpeed="10"/>
	<trip id="43" depart="376.0" from="ce6" to="ce3" type="standard_car" departLane="random" departSpeed="10"/>
	<trip id="44" depart="388.0" from="ce6" to="ce3" type="standard_car" departLane="random" departSpeed="10"/>
	<trip id="45" depart="389.0" from="ce6" to="ce7" type="standard_car" departLane="random" departSpeed="10"/>
	<trip id="46" depart="390.0" from="ce6" to="ce7" type="standard_car" departLane="random" departSpeed="10"/>
	<trip id="47" depart="395.0" from="ce8" to="ce1" type="standard_car" departLane="random" departSpeed="10"/>
	<trip id="48" depart="416.0" from="ce8" to="ce1" type="standard_car" departLane="random" departSpeed="10"/>
	<trip id="49" depart="426.0" from="ce4" to="ce3" type="standard_car" departLane="random" departSpeed="10"/>
	<trip id="50" depart="430.0" from="ce6" to="ce5" type="standard_car" departLane="random" departSpeed="10"/>
	<trip id="51" depart="435.0" from="ce6" to="ce5" type="standard_car" departLane="random" departSpeed="10"/>
	<trip id="52" depart="438.0" from="ce8" to="ce5" type="standard_car" departLane="random" departSpeed="10"/>
	<trip id="53" depart="442.0" from="ce8" to="ce5" type="standard_car" departLane="random" departSpeed="10"/>
	<trip id="54" depart="444.0" from="ce6" to="ce7" type="standard_car" departLane="random" departSpeed="10"/>
	<trip id="55" depart="444.0" from="ce4" to="ce1" type="standard_car" departLane="random" departSpeed="10"/>
	<trip id="56" depart="446.0" from="ce4" to="ce7" type="standard_car" departLane="random" departSpeed="10"/>
	<trip id="57" depart="450.0" from="ce8" to="ce1" type="standard_car" departLane="random" departSpeed="10"/>
	<trip id="58" depart="464.0" from="ce8" to="ce1" type="standard_car" departLane="random" departSpeed="10"/>
	<trip id="59" depart="465.0" from="ce6" to="ce1" type="standard_car" departLane="random" departSpeed="10"/>
	<trip id="60" depart="478.0" from="ce8" to="ce1" type="standard_car" departLane="random" departSpeed="10"/>
	<trip id="61" depart="485.0" from="ce6" to="ce3" type="standard_car" departLane="random" departSpeed="10"/>
	<trip id="62" depart="532.0" from="ce6" to="ce5" type="standard_car" departLane="random" departSpeed="10"/>
	<trip id="63" depart="535.0" from="ce6" to="ce3" type="standard_car" departLane="random" departSpeed="10"/>
	<trip id="64" depart="545.0" from="ce6" to="ce5" type="standard_car" departLane="random" departSpeed="10"/>
	<trip id="65" depart="547.0" from="ce8" to="ce3" type="standard_car" departLane="random" departSpeed="10"/>
	<trip id="66" depart="559.0" from="ce6" to="ce1" type="standard_car" departLane="random" departSpeed="10"/>
	<trip id="67" depart="564.0" from="ce6" to="ce3" type="standard_car" departLane="random" departSpeed="10"/>
	<trip id="68" depart="570.0" from="ce4" to="ce7" type="standard_car" departLane="random" departSpeed="10"/>
	<trip id="69" depart="583.0" from="ce6" to="ce1" type="standard_car" departLane="random" departSpeed="10"/>
	<trip id="70" depart="590.0" from="ce8" to="ce5" type="standard_car" departLane="random" departSpeed="10"/>
	<trip id="71" depart="594.0" from="ce4" to="ce7" type="standard_car" departLane="random" departSpeed="10"/>
	<trip id="72" depart="604.0" from="ce4" to="ce7" type="standard_car" departLane="random" departSpeed="10"/>
	<trip id="73" depart="605.0" from="ce6" to="ce1" type="standard_car" departLane="random" departSpeed="10"/>
	<trip id="74" depart="609.0" from="ce6" to="ce1" type="standard_car" departLane="random" departSpeed="10"/>
	<trip id="75" depart="623.0" from="ce4" to="ce5" type="standard_car" departLane="random" departSpeed="10"/>
	<trip id="76" depart="626.0" from="ce6" to="ce5" type="standard_car" departLane="random" departSpeed="10"/>
	<trip id="77" depart="634.0" from="ce6" to="ce1" type="standard_car" departLane="random" departSpeed="10"/>
	<trip id="78" depart="644.0" from="ce8" to="ce1" type="standard_car" departLane="random" departSpeed="10"/>
	<trip id="79" depart="647.0" from="ce8" to="ce3" type="standard_car" departLane="random" departSpeed="10"/>
	<trip id="80" depart="651.0" from="ce8" to="ce1" type="standard_car" departLane="random" departSpeed="10"/>
	<trip id="81" depart="655.0" from="ce6" to="ce1" type="standard_car" departLane="random" departSpeed="10"/>
	<trip id="82" depart="657.0" from="ce4" to="ce1" type="standard_car" departLane="random" departSpeed="10"/>
	<trip id="83" depart="667.0" from="ce6" to="ce3" type="standard_car" departLane="random" departSpeed="10"/>
	<trip id="84" depart="676.0" from="ce6" to="ce3" type="standard_car" departLane="random" departSpeed="10"/>
	<trip id="85" depart="680.0" from="ce6" to="ce7" type="standard_car" departLane="random" departSpeed="10"/>
	<trip id="86" depart="684.0" from="ce6" to="ce1" type="standard_car" departLane="random" departSpeed="10"/>
	<trip id="87" depart="689.0" from="ce8" to="ce3" type="standard_car" departLane="random" departSpeed="10"/>
	<trip id="88" depart="696.0" from="ce6" to="ce1" type="standard_car" departLane="random" departSpeed="10"/>
	<trip id="89" depart="697.0" from="ce6" to="ce7" type="standard_car" departLane="random" departSpeed="10"/>
	<trip id="90" depart="700.0" from="ce8" to="ce7" type="standard_car" departLane="random" departSpeed="10"/>
	<trip id="91" depart="712.0" from="ce6" to="ce7" type="standard_car" departLane="random" departSpeed="10"/>
	<trip id="92" depart="717.0" from="ce6" to="ce1" type="standard_car" departLane="random" departSpeed="10"/>
	<trip id="93" depart="730.0" from="ce4" to="ce5" type="standard_car" departLane="random" departSpeed="10"/>
	<trip id="94" depart="778.0" from="ce6" to="ce3" type="standard_car" departLane="random" departSpeed="10"/>
	<trip id="95" depart="798.0" from="ce6" to="ce3" type="standard_car" departLane="random" departSpeed="10"/>
	<trip id="96" depart="798.0" from="ce8" to="ce3" type="standard_car" departLane="random" departSpeed="10"/>
	<trip id="97" depart="821.0" from="ce6" to="ce3" type="standard_car" departLane="random" departSpeed="10"/>
	<trip id="98" depart="824.0" from="ce6" to="ce1" type="standard_car" departLane="random" departSpeed="10"/>
	<trip id="99" depart="829.0" from="ce6" to="ce7" type="standard_car" departLane="random" departSpeed="10"/>
	<trip id="100" depart="831.0" from="ce6" to="ce1" type="standard_car" departLane="random" departSpeed="10"/>
	<trip id="101" depart="835.0" from="ce6" to="ce7" type="standard_car" departLane="random" departSpeed="10"/>
	<trip id="102" depart="837.0" from="ce8" to="ce3" type="standard_car" departLane="random" departSpeed="10"/>
	<trip id="103" depart="842.0" from="ce8" to="ce5" type="standard_car" departLane="random" departSpeed="10"/>
	<trip id="104" depart="845.0" from="ce6" to="ce1" type="standard_car" departLane="random" departSpeed="10"/>
	<trip id="105" depart="882.0" from="ce8" to="ce1" type="standard_car" departLane="random" departSpeed="10"/>
	<trip id="106" depart="884.0" from="ce6" to="ce3" type="standard_car" departLane="random" departSpeed="10"/>
	<trip id="107" depart="901.0" from="ce4" to="ce1" type="standard_car" departLane="random" departSpeed="10"/>
	<trip id="108" depart="911.0" from="ce4" to="ce1" type="standard_car" departLane="random" departSpeed="10"/>
	<trip id="109" depart="913.0" from="ce8" to="ce1" type="standard_car" departLane="random" departSpeed="10"/>
	<trip id="110" depart="913.0" from="ce6" to="ce7" type="standard_car" departLane="random" departSpeed="10"/>
	<trip id="111" depart="924.0" from="ce8" to="ce3" type="standard_car" departLane="random" departSpeed="10"/>
	<trip id="112" depart="939.0" from="ce4" to="ce1" type="standard_car" departLane="random" departSpeed="10"/>
	<trip id="113" depart="961.0" from="ce2" to="ce7" type="standard_car" departLane="random" departSpeed="10"/>
	<trip id="114" depart="973.0" from="ce8" to="ce5" type="standard_car" departLane="random" departSpeed="10"/>
	<trip id="115" depart="978.0" from="ce8" to="ce3" type="standard_car" departLane="random" departSpeed="10"/>
	<trip id="116" depart="981.0" from="ce4" to="ce3" type="standard_car" departLane="random" departSpeed="10"/>
	<trip id="117" depart="983.0" from="ce8" to="ce1" type="standard_car" departLane="random" departSpeed="10"/>
	<trip id="118" depart="1006.0" from="ce8" to="ce3" type="standard_car" departLane="random" departSpeed="10"/>
	<trip id="119" depart="1027.0" from="ce8" to="ce3" type="standard_car" departLane="random" departSpeed="10"/>
	<trip id="120" depart="1029.0" from="ce6" to="ce1" type="standard_car" departLane="random" departSpeed="10"/>
	<trip id="121" depart="1032.0" from="ce8" to="ce1" type="standard_car" departLane="random" departSpeed="10"/>
	<trip id="122" depart="1034.0" from="ce6" to="ce1" type="standard_car" departLane="random" departSpeed="10"/>
	<trip id="123" depart="1037.0" from="ce6" to="ce7" type="standard_car" departLane="random" departSpeed="10"/>
	<trip id="124" depart="1037.0" from="ce4" to="ce5" type="standard_car" departLane="random" departSpeed="10"/>
	<trip id="125" depart="1040.0" from="ce8" to="ce3" type="standard_car" departLane="random" departSpeed="10"/>
	<trip id="126" depart="1047.0" from="ce6" to="ce7" type="standard_car" departLane="random" departSpeed="10"/>
	<trip id="127" depart="1059.0" from="ce8" to="ce5" type="standard_car" departLane="random" departSpeed="10"/>
	<trip id="128" depart="1074.0" from="ce2" to="ce3" type="standard_car" departLane="random" departSpeed="10"/>
	<trip id="129" depart="1081.0" from="ce8" to="ce1" type="standard_car" departLane="random" departSpeed="10"/>
	<trip id="130" depart="1096.0" from="ce8" to="ce1" type="standard_car" departLane="random" departSpeed="10"/>
	<trip id="131" depart="1097.0" from="ce6" to="ce1" type="standard_car" departLane="random" departSpeed="10"/>
	<trip id="132" depart="1114.0" from="ce8" to="ce1" type="standard_car" departLane="random" departSpeed="10"/>
	<trip id="133" depart="1124.0" from="ce4" to="ce7" type="standard_car" departLane="random" departSpeed="10"/>
	<trip id="134" depart="1150.0" from="ce6" to="ce1" type="standard_car" departLane="random" departSpeed="10"/>
	<trip id="135" depart="1161.0" from="ce8" to="ce1" type="standard_car" departLane="random" departSpeed="10"/>
	<trip id="136" depart="1162.0" from="ce6" to="ce3" type="standard_car" departLane="random" departSpeed="10"/>
	<trip id="137" depart="1166.0" from="ce8" to="ce7" type="standard_car" departLane="random" departSpeed="10"/>
	<trip id="138" depart="1168.0" from="ce6" to="ce7" type="standard_car" departLane="random" departSpeed="10"/>
	<trip id="139" depart="1175.0" from="ce4" to="ce7" type="standard_car" departLane="random" departSpeed="10"/>
	<trip id="140" depart="1176.0" from="ce8" to="ce5" type="standard_car" departLane="random" departSpeed="10"/>
	<trip id="141" depart="1182.0" from="ce2" to="ce3" type="standard_car" departLane="random" departSpeed="10"/>
	<trip id="142" depart="1187.0" from="ce8" to="ce3" type="standard_car" departLane="random" departSpeed="10"/>
	<trip id="143" depart="1192.0" from="ce4" to="ce1" type="standard_car" departLane="random" departSpeed="10"/>
	<trip id="144" depart="1193.0" from="ce8" to="ce5" type="standard_car" departLane="random" departSpeed="10"/>
	<trip id="145" depart="1197.0" from="ce4" to="ce1" type="standard_car" departLane="random" departSpeed="10"/>
	<trip id="146" depart="1198.0" from="ce4" to="ce7" type="standard_car" departLane="random" departSpeed="10"/>
	<trip id="147" depart="1200.0" from="ce8" to="ce3" type="standard_car" departLane="random" departSpeed="10"/>
	<trip id="148" depart="1202.0" from="ce8" to="ce3" type="standard_car" departLane="random" departSpeed="10"/>
	<trip id="149" depart="1209.0" from="ce4" to="ce5" type="standard_car" departLane="random" departSpeed="10"/>
	<trip id="150" depart="1214.0" from="ce8" to="ce7" type="standard_car" departLane="random" departSpeed="10"/>
	<trip id="151" depart="1221.0" from="ce2" to="ce5" type="standard_car" departLane="random" departSpeed="10"/>
	<trip id="152" depart="1224.0" from="ce6" to="ce7" type="standard_car" departLane="random" departSpeed="10"/>
	<trip id="153" depart="1226.0" from="ce8" to="ce3" type="standard_car" departLane="random" departSpeed="10"/>
	<trip id="154" depart="1237.0" from="ce6" to="ce7" type="standard_car" departLane="random" departSpeed="10"/>
	<trip id="155" depart="1251.0" from="ce6" to="ce3" type="standard_car" departLane="random" departSpeed="10"/>
	<trip id="156" depart="1261.0" from="ce8" to="ce5" type="standard_car" departLane="random" departSpeed="10"/>
	<trip id="157" depart="1275.0" from="ce6" to="ce1" type="standard_car" departLane="random" departSpeed="10"/>
	<trip id="158" depart="1279.0" from="ce8" to="ce5" type="standard_car" departLane="random" departSpeed="10"/>
	<trip id="159" depart="1290.0" from="ce8" to="ce1" type="standard_car" departLane="random" departSpeed="10"/>
	<trip id="160" depart="1303.0" from="ce8" to="ce3" type="standard_car" departLane="random" departSpeed="10"/>
	<trip id="161" depart="1306.0" from="ce6" to="ce5" type="standard_car" departLane="random" departSpeed="10"/>
	<trip id="162" depart="1309.0" from="ce8" to="ce3" type="standard_car" departLane="random" departSpeed="10"/>
	<trip id="163" depart="1310.0" from="ce6" to="ce7" type="standard_car" departLane="random" departSpeed="10"/>
	<trip id="164" depart="1312.0" from="ce6" to="ce1" type="standard_car" departLane="random" departSpeed="10"/>
	<trip id="165" depart="1319.0" from="ce4" to="ce1" type="standard_car" departLane="random" departSpeed="10"/>
	<trip id="166" depart="1333.0" from="ce6" to="ce7" type="standard_car" departLane="random" departSpeed="10"/>
	<trip id="167" depart="1339.0" from="ce6" to="ce7" type="standard_car" departLane="random" departSpeed="10"/>
	<trip id="168" depart="1344.0" from="ce6" to="ce3" type="standard_car" departLane="random" departSpeed="10"/>
	<trip id="169" depart="1351.0" from="ce8" to="ce5" type="standard_car" departLane="random" departSpeed="10"/>
	<trip id="170" depart="1352.0" from="ce4" to="ce5" type="standard_car" departLane="random" departSpeed="10"/>
	<trip id="171" depart="1353.0" from="ce8" to="ce1" type="standard_car" departLane="random" departSpeed="10"/>
	<trip id="172" depart="1370.0" from="ce4" to="ce7" type="standard_car" departLane="random" departSpeed="10"/>
	<trip id="173" depart="1381.0" from="ce8" to="ce3" type="standard_car" departLane="random" departSpeed="10"/>
	<trip id="174" depart="1383.0" from="ce6" to="ce1" type="standard_car" departLane="random" departSpeed="10"/>
	<trip id="175" depart="1392.0" from="ce6" to="ce1" type="standard_car" departLane="random" departSpeed="10"/>
	<trip id="176" depart="1394.0" from="ce8" to="ce5" type="standard_car" departLane="random" departSpeed="10"/>
	<trip id="177" depart="1414.0" from="ce8" to="ce5" type="standard_car" departLane="random" departSpeed="10"/>
	<trip id="178" depart="1416.0" from="ce4" to="ce3" type="standard_car" departLane="random" departSpeed="10"/>
	<trip id="179" depart="1427.0" from="ce6" to="ce7" type="standard_car" departLane="random" departSpeed="10"/>
	<trip id="180" depart="1429.0" from="ce6" to="ce7" type="standard_car" departLane="random" departSpeed="10"/>
	<trip id="181" depart="1441.0" from="ce6" to="ce3" type="standard_car" departLane="random" departSpeed="10"/>
	<trip id="182" depart="1445.0" from="ce8" to="ce3" type="standard_car" departLane="random" departSpeed="10"/>
	<trip id="183" depart="1454.0" from="ce6" to="ce1" type="standard_car" departLane="random" departSpeed="10"/>
	<trip id="184" depart="1457.0" from="ce8" to="ce3" type="standard_car" departLane="random" departSpeed="10"/>
	<trip id="185" depart="1467.0" from="ce2" to="ce1" type="standard_car" departLane="random" departSpeed="10"/>
	<trip id="186" depart="1469.0" from="ce8" to="ce3" type="standard_car" departLane="random" departSpeed="10"/>
	<trip id="187" depart="1470.0" from="ce4" to="ce5" type="standard_car" departLane="random" departSpeed="10"/>
	<trip id="188" depart="1471.0" from="ce6" to="ce7" type="standard_car" departLane="random" departSpeed="10"/>
	<trip id="189" depart="1474.0" from="ce8" to="ce1" type="standard_car" departLane="random" departSpeed="10"/>
	<trip id="190" depart="1475.0" from="ce6" to="ce1" type="standard_car" departLane="random" departSpeed="10"/>
	<trip id="191" depart="1485.0" from="ce8" to="ce5" type="standard_car" departLane="random" departSpeed="10"/>
	<trip id="192" depart="1496.0" from="ce4" to="ce5" type="standard_car" departLane="random" departSpeed="10"/>
	<trip id="193" depart="1500.0" from="ce4" to="ce5" type="standard_car" departLane="random" departSpeed="10"/>
	<trip id="194" depart="1509.0" from="ce6" to="ce1" type="standard_car" departLane="random" departSpeed="10"/>
	<trip id="195" depart="1522.0" from="ce6" to="ce1" type="standard_car" departLane="random" departSpeed="10"/>
	<trip id="196" depart="1534.0" from="ce6" to="ce1" type="standard_car" departLane="random" departSpeed="10"/>
	<trip id="197" depart="1535.0" from="ce6" to="ce3" type="standard_car" departLane="random" departSpeed="10"/>
	<trip id="198" depart="1541.0" from="ce2" to="ce5" type="standard_car" departLane="random" departSpeed="10"/>
	<trip id="199" depart="1550.0" from="ce8" to="ce1" type="standard_car" departLane="random" departSpeed="10"/>
	<trip id="200" depart="1555.0" from="ce4" to="ce1" type="standard_car" departLane="random" departSpeed="10"/>
	<trip id="201" depart="1559.0" from="ce6" to="ce7" type="standard_car" departLane="random" departSpeed="10"/>
	<trip id="202" depart="1565.0" from="ce4" to="ce7" type="standard_car" departLane="random" departSpeed="10"/>
	<trip id="203" depart="1567.0" from="ce8" to="ce3" type="standard_car" departLane="random" departSpeed="10"/>
	<trip id="204" depart="1569.0" from="ce4" to="ce1" type="standard_car" departLane="random" departSpeed="10"/>
	<trip id="205" depart="1570.0" from="ce8" to="ce5" type="standard_car" departLane="random" departSpeed="10"/>
	<trip id="206" depart="1572.0" from="ce4" to="ce5" type="standard_car" departLane="random" departSpeed="10"/>
	<trip id="207" depart="1573.0" from="ce8" to="ce5" type="standard_car" departLane="random" departSpeed="10"/>
	<trip id="208" depart="1582.0" from="ce4" to="ce3" type="standard_car" departLane="random" departSpeed="10"/>
	<trip id="209" depart="1586.0" from="ce8" to="ce1" type="standard_car" departLane="random" departSpeed="10"/>
	<trip id="210" depart="1589.0" from="ce8" to="ce3" type="standard_car" departLane="random" departSpeed="10"/>
	<trip id="211" depart="1600.0" from="ce4" to="ce7" type="standard_car" departLane="random" departSpeed="10"/>
	<trip id="212" depart="1602.0" from="ce6" to="ce5" type="standard_car" departLane="random" departSpeed="10"/>
	<trip id="213" depart="1603.0" from="ce4" to="ce3" type="standard_car" departLane="random" departSpeed="10"/>
	<trip id="214" depart="1623.0" from="ce6" to="ce7" type="standard_car" departLane="random" departSpeed="10"/>
	<trip id="215" depart="1645.0" from="ce2" to="ce7" type="standard_car" departLane="random" departSpeed="10"/>
	<trip id="216" depart="1648.0" from="ce6" to="ce3" type="standard_car" departLane="random" departSpeed="10"/>
	<trip id="217" depart="1659.0" from="ce4" to="ce1" type="standard_car" departLane="random" departSpeed="10"/>
	<trip id="218" depart="1665.0" from="ce2" to="ce3" type="standard_car" departLane="random" departSpeed="10"/>
	<trip id="219" depart="1676.0" from="ce2" to="ce5" type="standard_car" departLane="random" departSpeed="10"/>
	<trip id="220" depart="1701.0" from="ce6" to="ce1" type="standard_car" departLane="random" departSpeed="10"/>
	<trip id="221" depart="1710.0" from="ce6" to="ce5" type="standard_car" departLane="random" departSpeed="10"/>
	<trip id="222" depart="1710.0" from="ce4" to="ce3" type="standard_car" departLane="random" departSpeed="10"/>
	<trip id="223" depart="1717.0" from="ce6" to="ce3" type="standard_car" departLane="random" departSpeed="10"/>
	<trip id="224" depart="1722.0" from="ce6" to="ce3" type="standard_car" departLane="random" departSpeed="10"/>
	<trip id="225" depart="1727.0" from="ce8" to="ce1" type="standard_car" departLane="random" departSpeed="10"/>
	<trip id="226" depart="1734.0" from="ce6" to="ce3" type="standard_car" departLane="random" departSpeed="10"/>
	<trip id="227" depart="1736.0" from="ce6" to="ce3" type="standard_car" departLane="random" departSpeed="10"/>
	<trip id="228" depart="1752.0" from="ce8" to="ce5" type="standard_car" departLane="random" departSpeed="10"/>
	<trip id="229" depart="1756.0" from="ce8" to="ce3" type="standard_car" departLane="random" departSpeed="10"/>
	<trip id="230" depart="1766.0" from="ce4" to="ce7" type="standard_car" departLane="random" departSpeed="10"/>
	<trip id="231" depart="1768.0" from="ce4" to="ce7" type="standard_car" departLane="random" departSpeed="10"/>
	<trip id="232" depart="1771.0" from="ce8" to="ce1" type="standard_car" departLane="random" departSpeed="10"/>
	<trip id="233" depart="1780.0" from="ce4" to="ce7" type="standard_car" departLane="random" departSpeed="10"/>
	<trip id="234" depart="1782.0" from="ce8" to="ce3" type="standard_car" departLane="random" departSpeed="10"/>
	<trip id="235" depart="1792.0" from="ce8" to="ce1" type="standard_car" departLane="random" departSpeed="10"/>
	<trip id="236" depart="1793.0" from="ce6" to="ce3" type="standard_car" departLane="random" departSpeed="10"/>
	<trip id="237" depart="1809.0" from="ce6" to="ce3" type="standard_car" departLane="random" departSpeed="10"/>
	<trip id="238" depart="1809.0" from="ce4" to="ce5" type="standard_car" departLane="random" departSpeed="10"/>
	<trip id="239" depart="1810.0" from="ce2" to="ce1" type="standard_car" departLane="random" departSpeed="10"/>
	<trip id="240" depart="1821.0" from="ce6" to="ce1" type="standard_car" departLane="random" departSpeed="10"/>
	<trip id="241" depart="1837.0" from="ce6" to="ce3" type="standard_car" departLane="random" departSpeed="10"/>
	<trip id="242" depart="1839.0" from="ce6" to="ce7" type="standard_car" departLane="random" departSpeed="10"/>
	<trip id="243" depart="1841.0" from="ce4" to="ce1" type="standard_car" departLane="random" departSpeed="10"/>
	<trip id="244" depart="1853.0" from="ce8" to="ce1" type="standard_car" departLane="random" departSpeed="10"/>
	<trip id="245" depart="1853.0" from="ce6" to="ce7" type="standard_car" departLane="random" departSpeed="10"/>
	<trip id="246" depart="1854.0" from="ce8" to="ce7" type="standard_car" departLane="random" departSpeed="10"/>
	<trip id="247" depart="1860.0" from="ce8" to="ce5" type="standard_car" departLane="random" departSpeed="10"/>
	<trip id="248" depart="1863.0" from="ce6" to="ce7" type="standard_car" departLane="random" departSpeed="10"/>
	<trip id="249" depart="1876.0" from="ce8" to="ce1" type="standard_car" departLane="random" departSpeed="10"/>
	<trip id="250" depart="1878.0" from="ce4" to="ce5" type="standard_car" departLane="random" departSpeed="10"/>
	<trip id="251" depart="1888.0" from="ce6" to="ce3" type="standard_car" departLane="random" departSpeed="10"/>
	<trip id="252" depart="1900.0" from="ce6" to="ce1" type="standard_car" departLane="random" departSpeed="10"/>
	<trip id="253" depart="1916.0" from="ce2" to="ce7" type="standard_car" departLane="random" departSpeed="10"/>
	<trip id="254" depart="1926.0" from="ce6" to="ce7" type="standard_car" departLane="random" departSpeed="10"/>
	<trip id="255" depart="1926.0" from="ce6" to="ce1" type="standard_car" departLane="random" departSpeed="10"/>
	<trip id="256" depart="1936.0" from="ce4" to="ce1" type="standard_car" departLane="random" departSpeed="10"/>
	<trip id="257" depart="1943.0" from="ce8" to="ce5" type="standard_car" departLane="random" departSpeed="10"/>
	<trip id="258" depart="1944.0" from="ce8" to="ce3" type="standard_car" departLane="random" departSpeed="10"/>
	<trip id="259" depart="1956.0" from="ce6" to="ce7" type="standard_car" departLane="random" departSpeed="10"/>
	<trip id="260" depart="1963.0" from="ce6" to="ce7" type="standard_car" departLane="random" departSpeed="10"/>
	<trip id="261" depart="1970.0" from="ce8" to="ce5" type="standard_car" departLane="random" departSpeed="10"/>
	<trip id="262" depart="1976.0" from="ce4" to="ce7" type="standard_car" departLane="random" departSpeed="10"/>
	<trip id="263" depart="1981.0" from="ce6" to="ce1" type="standard_car" departLane="random" departSpeed="10"/>
	<trip id="264" depart="1987.0" from="ce2" to="ce5" type="standard_car" departLane="random" departSpeed="10"/>
	<trip id="265" depart="1997.0" from="ce8" to="ce3" type="standard_car" departLane="random" departSpeed="10"/>
	<trip id="266" depart="2005.0" from="ce6" to="ce3" type="standard_car" departLane="random" departSpeed="10"/>
	<trip id="267" depart="2020.0" from="ce6" to="ce3" type="standard_car" departLane="random" departSpeed="10"/>
	<trip id="268" depart="2023.0" from="ce8" to="ce3" type="standard_car" departLane="random" departSpeed="10"/>
	<trip id="269" depart="2026.0" from="ce8" to="ce3" type="standard_car" departLane="random" departSpeed="10"/>
	<trip id="270" depart="2027.0" from="ce6" to="ce3" type="standard_car" departLane="random" departSpeed="10"/>