<?xml version="1.0" ?>
<connections>
	<connection from="ce2" to="ce3" fromLane="0" toLane="0"/>
	<connection from="ce2" to="ce3" fromLane="1" toLane="1"/>
	<connection from="ce2" to="ce3" fromLane="2" toLane="2"/>
	<connection from="ce2" to="ce5" fromLane="3" toLane="3"/>
	<connection from="ce2" to="ce7" fromLane="0" toLane="0"/>
	<connection from="ce4" to="ce1" fromLane="0" toLane="0"/>
	<connection from="ce4" to="ce1" fromLane="1" toLane="1"/>
	<connection from="ce4" to="ce1" fromLane="2" toLane="2"/>
	<connection from="ce4" to="ce5" fromLane="0" toLane="0"/>
	<connection from="ce4" to="ce7" fromLane="3" toLane="3"/>
	<connection from="ce6" to="ce1" fromLane="0" toLane="0"/>
	<connection from="ce6" to="ce3" fromLane="3" toLane="3"/>
	<connection from="ce6" to="ce7" fromLane="0" toLane="0"/>
	<connection from="ce6" to="ce7" fromLane="1" toLane="1"/>
	<connection from="ce6" to="ce7" fromLane="2" toLane="2"/>
	<connection from="ce8" to="ce1" fromLane="3" toLane="3"/>
	<connection from="ce8" to="ce3" fromLane="0" toLane="0"/>
	<connection from="ce8" to="ce5" fromLane="0" toLane="0"/>
	<connection from="ce8" to="ce5" fromLane="1" toLane="1"/>
	<connection from="ce8" to="ce5" fromLane="2" toLane="2"/>
</connections>
