<?xml version="1.0" ?>
<connections>
	<connection from="ce2" to="ce3" fromLane="0" toLane="0"/>
	<connection from="ce2" to="ce6" fromLane="3" toLane="3"/>
	<connection from="ce2" to="ce18" fromLane="0" toLane="0"/>
	<connection from="ce2" to="ce18" fromLane="1" toLane="1"/>
	<connection from="ce2" to="ce18" fromLane="2" toLane="2"/>
	<connection from="ce4" to="ce1" fromLane="3" toLane="3"/>
	<connection from="ce4" to="ce6" fromLane="0" toLane="0"/>
	<connection from="ce4" to="ce6" fromLane="1" toLane="1"/>
	<connection from="ce4" to="ce6" fromLane="2" toLane="2"/>
	<connection from="ce4" to="ce18" fromLane="0" toLane="0"/>
	<connection from="ce5" to="ce1" fromLane="0" toLane="0"/>
	<connection from="ce5" to="ce3" fromLane="0" toLane="0"/>
	<connection from="ce5" to="ce3" fromLane="1" toLane="1"/>
	<connection from="ce5" to="ce3" fromLane="2" toLane="2"/>
	<connection from="ce5" to="ce18" fromLane="3" toLane="3"/>
	<connection from="ce6" to="ce7" fromLane="3" toLane="3"/>
	<connection from="ce6" to="ce10" fromLane="0" toLane="0"/>
	<connection from="ce6" to="ce24" fromLane="0" toLane="0"/>
	<connection from="ce6" to="ce24" fromLane="1" toLane="1"/>
	<connection from="ce6" to="ce24" fromLane="2" toLane="2"/>
	<connection from="ce8" to="ce5" fromLane="0" toLane="0"/>
	<connection from="ce8" to="ce10" fromLane="0" toLane="0"/>
	<connection from="ce8" to="ce10" fromLane="1" toLane="1"/>
	<connection from="ce8" to="ce10" fromLane="2" toLane="2"/>
	<connection from="ce8" to="ce24" fromLane="3" toLane="3"/>
	<connection from="ce9" to="ce5" fromLane="3" toLane="3"/>
	<connection from="ce9" to="ce7" fromLane="0" toLane="0"/>
	<connection from="ce9" to="ce7" fromLane="1" toLane="1"/>
	<connection from="ce9" to="ce7" fromLane="2" toLane="2"/>
	<connection from="ce9" to="ce24" fromLane="0" toLane="0"/>
	<connection from="ce10" to="ce11" fromLane="0" toLane="0"/>
	<connection from="ce10" to="ce11" fromLane="1" toLane="1"/>
	<connection from="ce10" to="ce11" fromLane="2" toLane="2"/>
	<connection from="ce10" to="ce13" fromLane="3" toLane="3"/>
	<connection from="ce10" to="ce16" fromLane="0" toLane="0"/>
	<connection from="ce12" to="ce9" fromLane="0" toLane="0"/>
	<connection from="ce12" to="ce9" fromLane="1" toLane="1"/>
	<connection from="ce12" to="ce9" fromLane="2" toLane="2"/>
	<connection from="ce12" to="ce13" fromLane="0" toLane="0"/>
	<connection from="ce12" to="ce16" fromLane="3" toLane="3"/>
	<connection from="ce14" to="ce9" fromLane="0" toLane="0"/>
	<connection from="ce14" to="ce11" fromLane="3" toLane="3"/>
	<connection from="ce14" to="ce16" fromLane="0" toLane="0"/>
	<connection from="ce14" to="ce16" fromLane="1" toLane="1"/>
	<connection from="ce14" to="ce16" fromLane="2" toLane="2"/>
	<connection from="ce15" to="ce9" fromLane="3" toLane="3"/>
	<connection from="ce15" to="ce11" fromLane="0" toLane="0"/>
	<connection from="ce15" to="ce13" fromLane="0" toLane="0"/>
	<connection from="ce15" to="ce13" fromLane="1" toLane="1"/>
	<connection from="ce15" to="ce13" fromLane="2" toLane="2"/>
	<connection from="ce16" to="ce17" fromLane="0" toLane="0"/>
	<connection from="ce16" to="ce19" fromLane="3" toLane="3"/>
	<connection from="ce16" to="ce21" fromLane="0" toLane="0"/>
	<connection from="ce16" to="ce21" fromLane="1" toLane="1"/>
	<connection from="ce16" to="ce21" fromLane="2" toLane="2"/>
	<connection from="ce17" to="ce1" fromLane="0" toLane="0"/>
	<connection from="ce17" to="ce1" fromLane="1" toLane="1"/>
	<connection from="ce17" to="ce1" fromLane="2" toLane="2"/>
	<connection from="ce17" to="ce3" fromLane="3" toLane="3"/>
	<connection from="ce17" to="ce6" fromLane="0" toLane="0"/>
	<connection from="ce18" to="ce15" fromLane="3" toLane="3"/>
	<connection from="ce18" to="ce19" fromLane="0" toLane="0"/>
	<connection from="ce18" to="ce19" fromLane="1" toLane="1"/>
	<connection from="ce18" to="ce19" fromLane="2" toLane="2"/>
	<connection from="ce18" to="ce21" fromLane="0" toLane="0"/>
	<connection from="ce20" to="ce15" fromLane="0" toLane="0"/>
	<connection from="ce20" to="ce17" fromLane="0" toLane="0"/>
	<connection from="ce20" to="ce17" fromLane="1" toLane="1"/>
	<connection from="ce20" to="ce17" fromLane="2" toLane="2"/>
	<connection from="ce20" to="ce21" fromLane="3" toLane="3"/>
	<connection from="ce22" to="ce15" fromLane="0" toLane="0"/>
	<connection from="ce22" to="ce15" fromLane="1" toLane="1"/>
	<connection from="ce22" to="ce15" fromLane="2" toLane="2"/>
	<connection from="ce22" to="ce17" fromLane="3" toLane="3"/>
	<connection from="ce22" to="ce19" fromLane="0" toLane="0"/>
	<connection from="ce23" to="ce5" fromLane="0" toLane="0"/>
	<connection from="ce23" to="ce5" fromLane="1" toLane="1"/>
	<connection from="ce23" to="ce5" fromLane="2" toLane="2"/>
	<connection from="ce23" to="ce7" fromLane="0" toLane="0"/>
	<connection from="ce23" to="ce10" fromLane="3" toLane="3"/>
	<connection from="ce24" to="ce25" fromLane="3" toLane="3"/>
	<connection from="ce24" to="ce27" fromLane="0" toLane="0"/>
	<connection from="ce24" to="ce29" fromLane="0" toLane="0"/>
	<connection from="ce24" to="ce29" fromLane="1" toLane="1"/>
	<connection from="ce24" to="ce29" fromLane="2" toLane="2"/>
	<connection from="ce26" to="ce23" fromLane="0" toLane="0"/>
	<connection from="ce26" to="ce27" fromLane="0" toLane="0"/>
	<connection from="ce26" to="ce27" fromLane="1" toLane="1"/>
	<connection from="ce26" to="ce27" fromLane="2" toLane="2"/>
	<connection from="ce26" to="ce29" fromLane="3" toLane="3"/>
	<connection from="ce28" to="ce23" fromLane="3" toLane="3"/>
	<connection from="ce28" to="ce25" fromLane="0" toLane="0"/>
	<connection from="ce28" to="ce25" fromLane="1" toLane="1"/>
	<connection from="ce28" to="ce25" fromLane="2" toLane="2"/>
	<connection from="ce28" to="ce29" fromLane="0" toLane="0"/>
	<connection from="ce30" to="ce23" fromLane="0" toLane="0"/>
	<connection from="ce30" to="ce23" fromLane="1" toLane="1"/>
	<connection from="ce30" to="ce23" fromLane="2" toLane="2"/>
	<connection from="ce30" to="ce25" fromLane="0" toLane="0"/>
	<connection from="ce30" to="ce27" fromLane="3" toLane="3"/>
</connections>
