<?xml version="1.0" ?>
<edges>
	<edge id="ce1" from="1" to="c6" numLanes="4" speed="13.9"/>
	<edge id="ce2" from="c6" to="1" numLanes="4" speed="13.9"/>
	<edge id="ce3" from="1" to="c7" numLanes="4" speed="13.9"/>
	<edge id="ce4" from="c7" to="1" numLanes="4" speed="13.9"/>
	<edge id="ce5" from="2" to="1" numLanes="4" speed="13.9"/>
	<edge id="ce6" from="1" to="2" numLanes="4" speed="13.9"/>
	<edge id="ce7" from="2" to="c8" numLanes="4" speed="13.9"/>
	<edge id="ce8" from="c8" to="2" numLanes="4" speed="13.9"/>
	<edge id="ce9" from="3" to="2" numLanes="4" speed="13.9"/>
	<edge id="ce10" from="2" to="3" numLanes="4" speed="13.9"/>
	<edge id="ce11" from="3" to="c9" numLanes="4" speed="13.9"/>
	<edge id="ce12" from="c9" to="3" numLanes="4" speed="13.9"/>
	<edge id="ce13" from="3" to="c10" numLanes="4" speed="13.9"/>
	<edge id="ce14" from="c10" to="3" numLanes="4" speed="13.9"/>
	<edge id="ce15" from="4" to="3" numLanes="4" speed="13.9"/>
	<edge id="ce16" from="3" to="4" numLanes="4" speed="13.9"/>
	<edge id="ce17" from="4" to="1" numLanes="4" speed="13.9"/>
	<edge id="ce18" from="1" to="4" numLanes="4" speed="13.9"/>
	<edge id="ce19" from="4" to="c11" numLanes="4" speed="13.9"/>
	<edge id="ce20" from="c11" to="4" numLanes="4" speed="13.9"/>
	<edge id="ce21" from="4" to="c12" numLanes="4" speed="13.9"/>
	<edge id="ce22" from="c12" to="4" numLanes="4" speed="13.9"/>
	<edge id="ce23" from="5" to="2" numLanes="4" speed="13.9"/>
	<edge id="ce24" from="2" to="5" numLanes="4" speed="13.9"/>
	<edge id="ce25" from="5" to="c13" numLanes="4" speed="13.9"/>
	<edge id="ce26" from="c13" to="5" numLanes="4" speed="13.9"/>
	<edge id="ce27" from="5" to="c14" numLanes="4" speed="13.9"/>
	<edge id="ce28" from="c14" to="5" numLanes="4" speed="13.9"/>
	<edge id="ce29" from="5" to="c15" numLanes="4" speed="13.9"/>
	<edge id="ce30" from="c15" to="5" numLanes="4" speed="13.9"/>
</edges>
