<?xml version="1.0" ?>
<routes>
	<vType accel="1.0" decel="4.5" id="standard_car" length="5.0" minGap="2.5" maxSpeed="25" sigma="0.5"/>
	<trip id="0" depart="5.0" from="ce6" to="ce3" type="standard_car" departLane="random" departSpeed="10"/>
	<trip id="1" depart="15.0" from="ce6" to="ce3" type="standard_car" departLane="random" departSpeed="10"/>
	<trip id="2" depart="20.0" from="ce8" to="ce5" type="standard_car" departLane="random" departSpeed="10"/>
	<trip id="3" depart="26.0" from="ce2" to="ce3" type="standard_car" departLane="random" departSpeed="10"/>
	<trip id="4" depart="30.0" from="ce6" to="ce1" type="standard_car" departLane="random" departSpeed="10"/>
	<trip id="5" depart="32.0" from="ce2" to="ce1" type="standard_car" departLane="random" departSpeed="10"/>
	<trip id="6" depart="38.0" from="ce6" to="ce3" type="standard_car" departLane="random" departSpeed="10"/>
	<trip id="7" depart="78.0" from="ce6" to="ce1" type="standard_car" departLane="random" departSpeed="10"/>
	<trip id="8" depart="83.0" from="ce6" to="ce5" type="standard_car" departLane="random" departSpeed="10"/>
	<trip id="9" depart="86.0" from="ce6" to="ce3" type="standard_car" departLane="random" departSpeed="10"/>
	<trip id="10" depart="90.0" from="ce2" to="ce3" type="standard_car" departLane="random" departSpeed="10"/>
	<trip id="11" depart="102.0" from="ce6" to="ce1" type="standard_car" departLane="random" departSpeed="10"/>
	<trip id="12" depart="110.0" from="ce2" to="ce7" type="standard_car" departLane="random" departSpeed="10"/>
	<trip id="13" depart="121.0" from="ce2" to="ce3" type="standard_car" departLane="random" departSpeed="10"/>
	<trip id="14" depart="127.0" from="ce2" to="ce7" type="standard_car" departLane="random" departSpeed="10"/>
	<trip id="15" depart="128.0" from="ce6" to="ce1" type="standard_car" departLane="random" departSpeed="10"/>
	<trip id="16" depart="141.0" from="ce2" to="ce5" type="standard_car" departLane="random" departSpeed="10"/>
	<trip id="17" depart="143.0" from="ce6" to="ce3" type="standard_car" departLane="random" departSpeed="10"/>
	<trip id="18" depart="146.0" from="ce6" to="ce3" type="standard_car" departLane="random" departSpeed="10"/>
	<trip id="19" depart="155.0" from="ce6" to="ce7" type="standard_car" departLane="random" departSpeed="10"/>
	<trip id="20" depart="161.0" from="ce4" to="ce1" type="standard_car" departLane="random" departSpeed="10"/>
	<trip id="21" depart="169.0" from="ce6" to="ce1" type="standard_car" departLane="random" departSpeed="10"/>
	<trip id="22" depart="172.0" from="ce6" to="ce7" type="standard_car" departLane="random" departSpeed="10"/>
	<trip id="23" depart="175.0" from="ce8" to="ce5" type="standard_car" departLane="random" departSpeed="10"/>
	<trip id="24" depart="187.0" from="ce6" to="ce7" type="standard_car" departLane="random" departSpeed="10"/>
	<trip id="25" depart="189.0" from="ce6" to="ce7" type="standard_car" departLane="random" departSpeed="10"/>
	<trip id="26" depart="190.0" from="ce6" to="ce7" type="standard_car" departLane="random" departSpeed="10"/>
	<trip id="27" depart="191.0" from="ce2" to="ce7" type="standard_car" departLane="random" departSpeed="10"/>
	<trip id="28" depart="200.0" from="ce2" to="ce5" type="standard_car" departLane="random" departSpeed="10"/>
	<trip id="29" depart="206.0" from="ce6" to="ce1" type="standard_car" departLane="random" departSpeed="10"/>
	<trip id="30" depart="214.0" from="ce2" to="ce3" type="standard_car" departLane="random" departSpeed="10"/>
	<trip id="31" depart="222.0" from="ce4" to="ce1" type="standard_car" departLane="random" departSpeed="10"/>
	<trip id="32" depart="229.0" from="ce2" to="ce5" type="standard_car" departLane="random" departSpeed="10"/>
	<trip id="33" depart="237.0" from="ce2" to="ce3" type="standard_car" departLane="random" departSpeed="10"/>
	<trip id="34" depart="249.0" from="ce6" to="ce3" type="standard_car" departLane="random" departSpeed="10"/>
	<trip id="35" depart="257.0" from="ce6" to="ce7" type="standard_car" departLane="random" departSpeed="10"/>
	<trip id="36" depart="259.0" from="ce8" to="ce5" type="standard_car" departLane="random" departSpeed="10"/>
	<trip id="37" depart="267.0" from="ce8" to="ce1" type="standard_car" departLane="random" departSpeed="10"/>
	<trip id="38" depart="275.0" from="ce2" to="ce3" type="standard_car" departLane="random" departSpeed="10"/>
	<trip id="39" depart="286.0" from="ce4" to="ce5" type="standard_car" departLane="random" departSpeed="10"/>
	<trip id="40" depart="320.0" from="ce8" to="ce1" type="standard_car" departLane="random" departSpeed="10"/>
	<trip id="41" depart="329.0" from="ce2" to="ce7" type="standard_car" departLane="random" departSpeed="10"/>
	<trip id="42" depart="331.0" from="ce4" to="ce7" type="standard_car" departLane="random" departSpeed="10"/>
	<trip id="43" depart="332.0" from="ce6" to="ce5" type="standard_car" departLane="random" departSpeed="10"/>
	<trip id="44" depart="333.0" from="ce6" to="ce7" type="standard_car" departLane="random" departSpeed="10"/>
	<trip id="45" depart="351.0" from="ce2" to="ce1" type="standard_car" departLane="random" departSpeed="10"/>
	<trip id="46" depart="352.0" from="ce2" to="ce5" type="standard_car" departLane="random" departSpeed="10"/>
	<trip id="47" depart="357.0" from="ce6" to="ce1" type="standard_car" departLane="random" departSpeed="10"/>
	<trip id="48" depart="358.0" from="ce6" to="ce5" type="standard_car" departLane="random" departSpeed="10"/>
	<trip id="49" depart="364.0" from="ce6" to="ce5" type="standard_car" departLane="random" departSpeed="10"/>
	<trip id="50" depart="373.0" from="ce2" to="ce5" type="standard_car" departLane="random" departSpeed="10"/>
	<trip id="51" depart="377.0" from="ce4" to="ce1" type="standard_car" departLane="random" departSpeed="10"/>
	<trip id="52" depart="382.0" from="ce6" to="ce7" type="standard_car" departLane="random" departSpeed="10"/>
	<trip id="53" depart="385.0" from="ce4" to="ce5" type="standard_car" departLane="random" departSpeed="10"/>
	<trip id="54" depart="387.0" from="ce2" to="ce5" type="standard_car" departLane="random" departSpeed="10"/>
	<trip id="55" depart="389.0" from="ce6" to="ce5" type="standard_car" departLane="random" departSpeed="10"/>
	<trip id="56" depart="396.0" from="ce6" to="ce7" type="standard_car" departLane="random" departSpeed="10"/>
	<trip id="57" depart="404.0" from="ce2" to="ce5" type="standard_car" departLane="random" departSpeed="10"/>
	<trip id="58" depart="408.0" from="ce8" to="ce1" type="standard_car" departLane="random" departSpeed="10"/>
	<trip id="59" depart="417.0" from="ce6" to="ce1" type="standard_car" departLane="random" departSpeed="10"/>
	<trip id="60" depart="427.0" from="ce8" to="ce3" type="standard_car" departLane="random" departSpeed="10"/>
	<trip id="61" depart="434.0" from="ce6" to="ce1" type="standard_car" departLane="random" departSpeed="10"/>
	<trip id="62" depart="448.0" from="ce2" to="ce5" type="standard_car" departLane="random" departSpeed="10"/>
	<trip id="63" depart="461.0" from="ce2" to="ce7" type="standard_car" departLane="random" departSpeed="10"/>
	<trip id="64" depart="472.0" from="ce2" to="ce7" type="standard_car" departLane="random" departSpeed="10"/>
	<trip id="65" depart="477.0" from="ce2" to="ce3" type="standard_car" departLane="random" departSpeed="10"/>
	<trip id="66" depart="479.0" from="ce2" to="ce7" type="standard_car" departLane="random" departSpeed="10"/>
	<trip id="67" depart="484.0" from="ce6" to="ce7" type="standard_car" departLane="random" departSpeed="10"/>
	<trip id="68" depart="486.0" from="ce8" to="ce7" type="standard_car" departLane="random" departSpeed="10"/>
	<trip id="69" depart="493.0" from="ce6" to="ce7" type="standard_car" departLane="random" departSpeed="10"/>
	<trip id="70" depart="495.0" from="ce4" to="ce5" type="standard_car" departLane="random" departSpeed="10"/>
	<trip id="71" depart="524.0" from="ce2" to="ce3" type="standard_car" departLane="random" departSpeed="10"/>
	<trip id="72" depart="529.0" from="ce6" to="ce3" type="standard_car" departLane="random" departSpeed="10"/>
	<trip id="73" depart="530.0" from="ce6" to="ce1" type="standard_car" departLane="random" departSpeed="10"/>
	<trip id="74" depart="530.0" from="ce2" to="ce5" type="standard_car" departLane="random" departSpeed="10"/>
	<trip id="75" depart="537.0" from="ce4" to="ce7" type="standard_car" departLane="random" departSpeed="10"/>
	<trip id="76" depart="537.0" from="ce6" to="ce1" type="standard_car" departLane="random" departSpeed="10"/>
	<trip id="77" depart="538.0" from="ce2" to="ce3" type="standard_car" departLane="random" departSpeed="10"/>
	<trip id="78" depart="560.0" from="ce6" to="ce1" type="standard_car" departLane="random" departSpeed="10"/>
	<trip id="79" depart="576.0" from="ce6" to="ce1" type="standard_car" departLane="random" departSpeed="10"/>
	<trip id="80" depart="577.0" from="ce2" to="ce5" type="standard_car" departLane="random" departSpeed="10"/>
	<trip id="81" depart="579.0" from="ce2" to="ce5" type="standard_car" departLane="random" departSpeed="10"/>
	<trip id="82" depart="580.0" from="ce2" to="ce5" type="standard_car" departLane="random" departSpeed="10"/>
	<trip id="83" depart="590.0" from="ce6" to="ce1" type="standard_car" departLane="random" departSpeed="10"/>
	<trip id="84" depart="593.0" from="ce2" to="ce1" type="standard_car" departLane="random" departSpeed="10"/>
	<trip id="85" depart="594.0" from="ce8" to="ce1" type="standard_car" departLane="random" departSpeed="10"/>
	<trip id="86" depart="596.0" from="ce2" to="ce7" type="standard_car" departLane="random" departSpeed="10"/>
	<trip id="87" depart="597.0" from="ce2" to="ce3" type="standard_car" departLane="random" departSpeed="10"/>
	<trip id="88" depart="606.0" from="ce2" to="ce3" type="standard_car" departLane="random" departSpeed="10"/>
	<trip id="89" depart="609.0" from="ce8" to="ce3" type="standard_car" departLane="random" departSpeed="10"/>
	<trip id="90" depart="610.0" from="ce6" to="ce7" type="standard_car" departLane="random" departSpeed="10"/>
	<trip id="91" depart="644.0" from="ce2" to="ce7" type="standard_car" departLane="random" departSpeed="10"/>
	<trip id="92" depart="650.0" from="ce6" to="ce7" type="standard_car" departLane="random" departSpeed="10"/>
	<trip id="93" depart="653.0" from="ce2" to="ce5" type="standard_car" departLane="random" departSpeed="10"/>
	<trip id="94" depart="677.0" from="ce4" to="ce3" type="standard_car" departLane="random" departSpeed="10"/>
	<trip id="95" depart="693.0" from="ce6" to="ce1" type="standard_car" departLane="random" departSpeed="10"/>
	<trip id="96" depart="693.0" from="ce8" to="ce3" type="standard_car" departLane="random" departSpeed="10"/>
	<trip id="97" depart="705.0" from="ce6" to="ce1" type="standard_car" departLane="random" departSpeed="10"/>
	<trip id="98" depart="711.0" from="ce4" to="ce1" type="standard_car" departLane="random" departSpeed="10"/>
	<trip id="99" depart="734.0" from="ce2" to="ce7" type="standard_car" departLane="random" departSpeed="10"/>
	<trip id="100" depart="735.0" from="ce6" to="ce1" type="standard_car" departLane="random" departSpeed="10"/>
	<trip id="101" depart="737.0" from="ce6" to="ce7" type="standard_car" departLane="random" departSpeed="10"/>
	<trip id="102" depart="743.0" from="ce6" to="ce3" type="standard_car" departLane="random" departSpeed="10"/>
	<trip id="103" depart="745.0" from="ce4" to="ce5" type="standard_car" departLane="random" departSpeed="10"/>
	<trip id="104" depart="763.0" from="ce2" to="ce7" type="standard_car" departLane="random" departSpeed="10"/>
	<trip id="105" depart="768.0" from="ce8" to="ce7" type="standard_car" departLane="random" departSpeed="10"/>
	<trip id="106" depart="773.0" from="ce6" to="ce3" type="standard_car" departLane="random" departSpeed="10"/>
	<trip id="107" depart="780.0" from="ce2" to="ce3" type="standard_car" departLane="random" departSpeed="10"/>
	<trip id="108" depart="805.0" from="ce6" to="ce1" type="standard_car" departLane="random" departSpeed="10"/>
	<trip id="109" depart="807.0" from="ce4" to="ce7" type="standard_car" departLane="random" departSpeed="10"/>
	<trip id="110" depart="808.0" from="ce6" to="ce3" type="standard_car" departLane="random" departSpeed="10"/>
	<trip id="111" depart="829.0" from="ce6" to="ce3" type="standard_car" departLane="random" departSpeed="10"/>
	<trip id="112" depart="830.0" from="ce2" to="ce5" type="standard_car" departLane="random" departSpeed="10"/>
	<trip id="113" depart="838.0" from="ce6" to="ce3" type="standard_car" departLane="random" departSpeed="10"/>
	<trip id="114" depart="842.0" from="ce6" to="ce7" type="standard_car" departLane="random" departSpeed="10"/>
	<trip id="115" depart="846.0" from="ce6" to="ce7" type="standard_car" departLane="random" departSpeed="10"/>
	<trip id="116" depart="849.0" from="ce6" to="ce3" type="standard_car" departLane="random" departSpeed="10"/>
	<trip id="117" depart="856.0" from="ce6" to="ce3" type="standard_car" departLane="random" departSpeed="10"/>
	<trip id="118" depart="856.0" from="ce6" to="ce3" type="standard_car" departLane="random" departSpeed="10"/>
	<trip id="119" depart="870.0" from="ce6" to="ce1" type="standard_car" departLane="random" departSpeed="10"/>
	<trip id="120" depart="870.0" from="ce6" to="ce5" type="standard_car" departLane="random" departSpeed="10"/>
	<trip id="121" depart="871.0" from="ce2" to="ce3" type="standard_car" departLane="random" departSpeed="10"/>
	<trip id="122" depart="882.0" from="ce2" to="ce3" type="standard_car" departLane="random" departSpeed="10"/>
	<trip id="123" depart="887.0" from="ce6" to="ce3" type="standard_car" departLane="random" departSpeed="10"/>
	<trip id="124" depart="895.0" from="ce6" to="ce1" type="standard_car" departLane="random" departSpeed="10"/>
	<trip id="125" depart="906.0" from="ce6" to="ce3" type="standard_car" departLane="random" departSpeed="10"/>
	<trip id="126" depart="914.0" from="ce6" to="ce7" type="standard_car" departLane="random" departSpeed="10"/>
	<trip id="127" depart="922.0" from="ce2" to="ce3" type="standard_car" departLane="random" departSpeed="10"/>
	<trip id="128" depart="931.0" from="ce4" to="ce3" type="standard_car" departLane="random" departSpeed="10"/>
	<trip id="129" depart="966.0" from="ce2" to="ce3" type="standard_car" departLane="random" departSpeed="10"/>
	<trip id="130" depart="976.0" from="ce6" to="ce3" type="standard_car" departLane="random" departSpeed="10"/>
	<trip id="131" depart="978.0" from="ce2" to="ce1" type="standard_car" departLane="random" departSpeed="10"/>
	<trip id="132" depart="980.0" from="ce4" to="ce7" type="standard_car" departLane="random" departSpeed="10"/>
	<trip id="133" depart="987.0" from="ce8" to="ce7" type="standard_car" departLane="random" departSpeed="10"/>
	<trip id="134" depart="988.0" from="ce8" to="ce1" type="standard_car" departLane="random" departSpeed="10"/>
	<trip id="135" depart="989.0" from="ce2" to="ce3" type="standard_car" departLane="random" departSpeed="10"/>
	<trip id="136" depart="993.0" from="ce2" to="ce5" type="standard_car" departLane="random" departSpeed="10"/>
	<trip id="137" depart="994.0" from="ce8" to="ce3" type="standard_car" departLane="random" departSpeed="10"/>
	<trip id="138" depart="995.0" from="ce8" to="ce1" type="standard_car" departLane="random" departSpeed="10"/>
	<trip id="139" depart="996.0" from="ce6" to="ce3" type="standard_car" departLane="random" departSpeed="10"/>
	<trip id="140" depart="998.0" from="ce4" to="ce5" type="standard_car" departLane="random" departSpeed="10"/>
	<trip id="141" depart="1012.0" from="ce6" to="ce7" type="standard_car" departLane="random" departSpeed="10"/>
	<trip id="142" depart="1013.0" from="ce6" to="ce1" type="standard_car" departLane="random" departSpeed="10"/>
	<trip id="143" depart="1014.0" from="ce2" to="ce3" type="standard_car" departLane="random" departSpeed="10"/>
	<trip id="144" depart="1021.0" from="ce2" to="ce5" type="standard_car" departLane="random" departSpeed="10"/>
	<trip id="145" depart="1035.0" from="ce2" to="ce7" type="standard_car" departLane="random" departSpeed="10"/>
	<trip id="146" depart="1037.0" from="ce8" to="ce5" type="standard_car" departLane="random" departSpeed="10"/>
	<trip id="147" depart="1042.0" from="ce6" to="ce1" type="standard_car" departLane="random" departSpeed="10"/>
	<trip id="148" depart="1073.0" from="ce2" to="ce1" type="standard_car" departLane="random" departSpeed="10"/>
	<trip id="149" depart="1075.0" from="ce2" to="ce5" type="standard_car" departLane="random" departSpeed="10"/>
	<trip id="150" depart="1082.0" from="ce2" to="ce7" type="standard_car" departLane="random" departSpeed="10"/>
	<trip id="151" depart="1108.0" from="ce2" to="ce5" type="standard_car" departLane="random" departSpeed="10"/>
	<trip id="152" depart="1111.0" from="ce8" to="ce3" type="standard_car" departLane="random" departSpeed="10"/>
	<trip id="153" depart="1112.0" from="ce2" to="ce5" type="standard_car" departLane="random" departSpeed="10"/>
	<trip id="154" depart="1118.0" from="ce6" to="ce1" type="standard_car" departLane="random" departSpeed="10"/>
	<trip id="155" depart="1130.0" from="ce8" to="ce5" type="standard_car" departLane="random" departSpeed="10"/>
	<trip id="156" depart="1138.0" from="ce6" to="ce7" type="standard_car" departLane="random" departSpeed="10"/>
	<trip id="157" depart="1141.0" from="ce2" to="ce7" type="standard_car" departLane="random" departSpeed="10"/>
	<trip id="158" depart="1154.0" from="ce6" to="ce3" type="standard_car" departLane="random" departSpeed="10"/>
	<trip id="159" depart="1168.0" from="ce2" to="ce7" type="standard_car" departLane="random" departSpeed="10"/>
	<trip id="160" depart="1178.0" from="ce2" to="ce5" type="standard_car" departLane="random" departSpeed="10"/>
	<trip id="161" depart="1180.0" from="ce2" to="ce3" type="standard_car" departLane="random" departSpeed="10"/>
	<trip id="162" depart="1185.0" from="ce2" to="ce7" type="standard_car" departLane="random" departSpeed="10"/>
	<trip id="163" depart="1193.0" from="ce2" to="ce3" type="standard_car" departLane="random" departSpeed="10"/>
	<trip id="164" depart="1213.0" from="ce6" to="ce7" type="standard_car" departLane="random" departSpeed="10"/>
	<trip id="165" depart="1215.0" from="ce4" to="ce1" type="standard_car" departLane="random" departSpeed="10"/>
	<trip id="166" depart="1233.0" from="ce2" to="ce3" type="standard_car" departLane="random" departSpeed="10"/>
	<trip id="167" depart="1234.0" from="ce6" to="ce7" type="standard_car" departLane="random" departSpeed="10"/>
	<trip id="168" depart="1237.0" from="ce2" to="ce5" type="standard_car" departLane="random" departSpeed="10"/>
	<trip id="169" depart="1241.0" from="ce2" to="ce3" type="standard_car" departLane="random" departSpeed="10"/>
	<trip id="170" depart="1258.0" from="ce2" to="ce7" type="standard_car" departLane="random" departSpeed="10"/>
	<trip id="171" depart="1266.0" from="ce6" to="ce3" type="standard_car" departLane="random" departSpeed="10"/>
	<trip id="172" depart="1270.0" from="ce4" to="ce7" type="standard_car" departLane="random" departSpeed="10"/>
	<trip id="173" depart="1271.0" from="ce6" to="ce7" type="standard_car" departLane="random" departSpeed="10"/>
	<trip id="174" depart="1276.0" from="ce6" to="ce7" type="standard_car" departLane="random" departSpeed="10"/>
	<trip id="175" depart="1284.0" from="ce2" to="ce7" type="standard_car" departLane="random" departSpeed="10"/>
	<trip id="176" depart="1285.0" from="ce2" to="ce3" type="standard_car" departLane="random" departSpeed="10"/>
	<trip id="177" depart="1290.0" from="ce4" to="ce7" type="standard_car" departLane="random" departSpeed="10"/>
	<trip id="178" depart="1298.0" from="ce6" to="ce3" type="standard_car" departLane="random" departSpeed="10"/>
	<trip id="179" depart="1299.0" from="ce6" to="ce5" type="standard_car" departLane="random" departSpeed="10"/>
	<trip id="180" depart="1301.0" from="ce8" to="ce3" type="standard_car" departLane="random" departSpeed="10"/>
	<trip id="181" depart="1302.0" from="ce6" to="ce3" type="standard_car" departLane="random" departSpeed="10"/>
	<trip id="182" depart="1317.0" from="ce2" to="ce5" type="standard_car" departLane="random" departSpeed="10"/>
	<trip id="183" depart="1321.0" from="ce2" to="ce3" type="standard_car" departLane="random" departSpeed="10"/>
	<trip id="184" depart="1322.0" from="ce2" to="ce7" type="standard_car" departLane="random" departSpeed="10"/>
	<trip id="185" depart="1327.0" from="ce2" to="ce3" type="standard_car" departLane="random" departSpeed="10"/>
	<trip id="186" depart="1330.0" from="ce6" to="ce1" type="standard_car" departLane="random" departSpeed="10"/>
	<trip id="187" depart="1333.0" from="ce6" to="ce5" type="standard_car" departLane="random" departSpeed="10"/>
	<trip id="188" depart="1335.0" from="ce6" to="ce5" type="standard_car" departLane="random" departSpeed="10"/>
	<trip id="189" depart="1339.0" from="ce6" to="ce3" type="standard_car" departLane="random" departSpeed="10"/>
	<trip id="190" depart="1341.0" from="ce2" to="ce1" type="standard_car" departLane="random" departSpeed="10"/>
	<trip id="191" depart="1347.0" from="ce2" to="ce1" type="standard_car" departLane="random" departSpeed="10"/>
	<trip id="192" depart="1347.0" from="ce8" to="ce5" type="standard_car" departLane="random" departSpeed="10"/>
	<trip id="193" depart="1354.0" from="ce2" to="ce1" type="standard_car" departLane="random" departSpeed="10"/>
	<trip id="194" depart="1362.0" from="ce6" to="ce3" type="standard_car" departLane="random" departSpeed="10"/>
	<trip id="195" depart="1371.0" from="ce2" to="ce5" type="standard_car" departLane="random" departSpeed="10"/>
	<trip id="196" depart="1377.0" from="ce6" to="ce3" type="standard_car" departLane="random" departSpeed="10"/>
	<trip id="197" depart="1392.0" from="ce6" to="ce5" type="standard_car" departLane="random" departSpeed="10"/>
	<trip id="198" depart="1402.0" from="ce2" to="ce5" type="standard_car" departLane="random" departSpeed="10"/>
	<trip id="199" depart="1423.0" from="ce2" to="ce7" type="standard_car" departLane="random" departSpeed="10"/>
	<trip id="200" depart="1435.0" from="ce4" to="ce5" type="standard_car" departLane="random" departSpeed="10"/>
	<trip id="201" depart="1438.0" from="ce6" to="ce1" type="standard_car" departLane="random" departSpeed="10"/>
	<trip id="202" depart="1459.0" from="ce6" to="ce1" type="standard_car" departLane="random" departSpeed="10"/>
	<trip id="203" depart="1480.0" from="ce6" to="ce1" type="standard_car" departLane="random" departSpeed="10"/>
	<trip id="204" depart="1486.0" from="ce8" to="ce3" type="standard_car" departLane="random" departSpeed="10"/>
	<trip id="205" depart="1487.0" from="ce6" to="ce7" type="standard_car" departLane="random" departSpeed="10"/>
	<trip id="206" depart="1494.0" from="ce2" to="ce3" type="standard_car" departLane="random" departSpeed="10"/>
	<trip id="207" depart="1494.0" from="ce4" to="ce1" type="standard_car" departLane="random" departSpeed="10"/>
	<trip id="208" depart="1505.0" from="ce2" to="ce7" type="standard_car" departLane="random" departSpeed="10"/>
	<trip id="209" depart="1513.0" from="ce2" to="ce7" type="standard_car" departLane="random" departSpeed="10"/>
	<trip id="210" depart="1517.0" from="ce6" to="ce3" type="standard_car" departLane="random" departSpeed="10"/>
	<trip id="211" depart="1521.0" from="ce6" to="ce1" type="standard_car" departLane="random" departSpeed="10"/>
	<trip id="212" depart="1526.0" from="ce2" to="ce5" type="standard_car" departLane="random" departSpeed="10"/>
	<trip id="213" depart="1529.0" from="ce2" to="ce7" type="standard_car" departLane="random" departSpeed="10"/>
	<trip id="214" depart="1535.0" from="ce2" to="ce5" type="standard_car" departLane="random" departSpeed="10"/>
	<trip id="215" depart="1537.0" from="ce6" to="ce1" type="standard_car" departLane="random" departSpeed="10"/>
	<trip id="216" depart="1540.0" from="ce6" to="ce1" type="standard_car" departLane="random" departSpeed="10"/>
	<trip id="217" depart="1574.0" from="ce8" to="ce5" type="standard_car" departLane="random" departSpeed="10"/>
	<trip id="218" depart="1578.0" from="ce2" to="ce3" type="standard_car" departLane="random" departSpeed="10"/>
	<trip id="219" depart="1590.0" from="ce2" to="ce7" type="standard_car" departLane="random" departSpeed="10"/>
	<trip id="220" depart="1601.0" from="ce2" to="ce5" type="standard_car" departLane="random" departSpeed="10"/>
	<trip id="221" depart="1613.0" from="ce8" to="ce1" type="standard_car" departLane="random" departSpeed="10"/>
	<trip id="222" depart="1619.0" from="ce6" to="ce3" type="standard_car" departLane="random" departSpeed="10"/>
	<trip id="223" depart="1624.0" from="ce2" to="ce7" type="standard_car" departLane="random" departSpeed="10"/>
	<trip id="224" depart="1628.0" from="ce2" to="ce5" type="standard_car" departLane="random" departSpeed="10"/>
	<trip id="225" depart="1630.0" from="ce6" to="ce3" type="standard_car" departLane="random" departSpeed="10"/>
	<trip id="226" depart="1647.0" from="ce6" to="ce7" type="standard_car" departLane="random" departSpeed="10"/>
	<trip id="227" depart="1651.0" from="ce2" to="ce3" type="standard_car" departLane="random" departSpeed="10"/>
	<trip id="228" depart="1651.0" from="ce8" to="ce1" type="standard_car" departLane="random" departSpeed="10"/>
	<trip id="229" depart="1653.0" from="ce6" to="ce3" type="standard_car" departLane="random" departSpeed="10"/>
	<trip id="230" depart="1657.0" from="ce2" to="ce3" type="standard_car" departLane="random" departSpeed="10"/>
	<trip id="231" depart="1658.0" from="ce2" to="ce5" type="standard_car" departLane="random" departSpeed="10"/>
	<trip id="232" depart="1664.0" from="ce2" to="ce3" type="standard_car" departLane="random" departSpeed="10"/>
	<trip id="233" depart="1667.0" from="ce6" to="ce7" type="standard_car" departLane="random" departSpeed="10"/>
	<trip id="234" depart="1667.0" from="ce2" to="ce3" type="standard_car" departLane="random" departSpeed="10"/>
	<trip id="235" depart="1680.0" from="ce6" to="ce3" type="standard_car" departLane="random" departSpeed="10"/>
	<trip id="236" depart="1684.0" from="ce6" to="ce7" type="standard_car" departLane="random" departSpeed="10"/>
	<trip id="237" depart="1691.0" from="ce6" to="ce5" type="standard_car" departLane="random" departSpeed="10"/>
	<trip id="238" depart="1695.0" from="ce4" to="ce5" type="standard_car" departLane="random" departSpeed="10"/>
	<trip id="239" depart="1698.0" from="ce8" to="ce5" type="standard_car" departLane="random" departSpeed="10"/>
	<trip id="240" depart="1700.0" from="ce4" to="ce5" type="standard_car" departLane="random" departSpeed="10"/>
	<trip id="241" depart="1713.0" from="ce6" to="ce1" type="standard_car" departLane="random" departSpeed="10"/>
	<trip id="242" depart="1716.0" from="ce2" to="ce3" type="standard_car" departLane="random" departSpeed="10"/>
	<trip id="243" depart="1719.0" from="ce6" to="ce7" type="standard_car" departLane="random" departSpeed="10"/>
	<trip id="244" depart="1744.0" from="ce6" to="ce3" type="standard_car" departLane="random" departSpeed="10"/>
	<trip id="245" depart="1749.0" from="ce2" to="ce3" type="standard_car" departLane="random" departSpeed="10"/>
	<trip id="246" depart="1749.0" from="ce6" to="ce1" type="standard_car" departLane="random" departSpeed="10"/>
	<trip id="247" depart="1750.0" from="ce6" to="ce3" type="standard_car" departLane="random" departSpeed="10"/>
	<trip id="248" depart="1756.0" from="ce4" to="ce1" type="standard_car" departLane="random" departSpeed="10"/>
	<trip id="249" depart="1758.0" from="ce2" to="ce7" type="standard_car" departLane="random" departSpeed="10"/>
	<trip id="250" depart="1767.0" from="ce6" to="ce7" type="standard_car" departLane="random" departSpeed="10"/>
	<trip id="251" depart="1782.0" from="ce6" to="ce3" type="standard_car" departLane="random" departSpeed="10"/>
	<trip id="252" depart="1790.0" from="ce6" to="ce5" type="standard_car" departLane="random" departSpeed="10"/>
	<trip id="253" depart="1800.0" from="ce6" to="ce7" type="standard_car" departLane="random" departSpeed="10"/>
	<trip id="254" depart="1804.0" from="ce6" to="ce3" type="standard_car" departLane="random" departSpeed="10"/>
	<trip id="255" depart="1804.0" from="ce4" to="ce1" type="standard_car" departLane="random" departSpeed="10"/>
	<trip id="256" depart="1807.0" from="ce6" to="ce7" type="standard_car" departLane="random" departSpeed="10"/>
	<trip id="257" depart="1815.0" from="ce6" to="ce3" type="standard_car" departLane="random" departSpeed="10"/>
	<trip id="258" depart="1818.0" from="ce6" to="ce7" type="standard_car" departLane="random" departSpeed="10"/>
	<trip id="259" depart="1830.0" from="ce6" to="ce1" type="standard_car" departLane="random" departSpeed="10"/>
	<trip id="260" depart="1845.0" from="ce4" to="ce3" type="standard_car" departLane="random" departSpeed="10"/>
	<trip id="261" depart="1848.0" from="ce4" to="ce7" type="standard_car" departLane="random" departSpeed="10"/>
	<trip id="262" depart="1856.0" from="ce2" to="ce7" type="standard_car" departLane="random" departSpeed="10"/>
	<trip id="263" depart="1871.0" from="ce4" to="ce1" type="standard_car" departLane="random" departSpeed="10"/>
	<trip id="264" depart="1876.0" from="ce6" to="ce1" type="standard_car" departLane="random" departSpeed="10"/>
	<trip id="265" depart="1881.0" from="ce2" to="ce3" type="standard_car" departLane="random" departSpeed="10"/>
	<trip id="266" depart="1882.0" from="ce6" to="ce7" type="standard_car" departLane="random" departSpeed="10"/>
	<trip id="267" depart="1884.0" from="ce6" to="ce3" type="standard_car" departLane="random" departSpeed="10"/>
	<trip id="268" depart="1885.0" from="ce4" to="ce5" type="standard_car" departLane="random" departSpeed="10"/>
	<trip id="269" depart="1887.0" from="ce6" to="ce7" type="standard_car" departLane="random" departSpeed="10"/>
	<trip id="270" depart="1888.0" from="ce6" to="ce7" type="standard_car" departLane="random" departSpeed="10"/>