<?xml version="1.0" ?>
<routes>
	<vType accel="1.0" decel="4.5" id="standard_car" length="5.0" minGap="2.5" maxSpeed="25" sigma="0.5"/>
	<trip id="0" depart="4.0" from="ce4" to="ce7" type="standard_car" departLane="random" departSpeed="10"/>
	<trip id="1" depart="12.0" from="ce2" to="ce3" type="standard_car" departLane="random" departSpeed="10"/>
	<trip id="2" depart="15.0" from="ce6" to="ce3" type="standard_car" departLane="random" departSpeed="10"/>
	<trip id="3" depart="20.0" from="ce2" to="ce5" type="standard_car" departLane="random" departSpeed="10"/>
	<trip id="4" depart="33.0" from="ce6" to="ce7" type="standard_car" departLane="random" departSpeed="10"/>
	<trip id="5" depart="45.0" from="ce6" to="ce5" type="standard_car" departLane="random" departSpeed="10"/>
	<trip id="6" depart="46.0" from="ce8" to="ce3" type="standard_car" departLane="random" departSpeed="10"/>
	<trip id="7" depart="68.0" from="ce6" to="ce7" type="standard_car" departLane="random" departSpeed="10"/>
	<trip id="8" depart="78.0" from="ce6" to="ce3" type="standard_car" departLane="random" departSpeed="10"/>
	<trip id="9" depart="78.0" from="ce2" to="ce3" type="standard_car" departLane="random" departSpeed="10"/>
	<trip id="10" depart="82.0" from="ce8" to="ce1" type="standard_car" departLane="random" departSpeed="10"/>
	<trip id="11" depart="91.0" from="ce6" to="ce1" type="standard_car" departLane="random" departSpeed="10"/>
	<trip id="12" depart="91.0" from="ce6" to="ce3" type="standard_car" departLane="random" departSpeed="10"/>
	<trip id="13" depart="93.0" from="ce2" to="ce3" type="standard_car" departLane="random" departSpeed="10"/>
	<trip id="14" depart="112.0" from="ce8" to="ce5" type="standard_car" departLane="random" departSpeed="10"/>
	<trip id="15" depart="112.0" from="ce4" to="ce7" type="standard_car" departLane="random" departSpeed="10"/>
	<trip id="16" depart="112.0" from="ce6" to="ce7" type="standard_car" departLane="random" departSpeed="10"/>
	<trip id="17" depart="115.0" from="ce2" to="ce5" type="standard_car" departLane="random" departSpeed="10"/>
	<trip id="18" depart="122.0" from="ce6" to="ce5" type="standard_car" departLane="random" departSpeed="10"/>
	<trip id="19" depart="135.0" from="ce6" to="ce1" type="standard_car" departLane="random" departSpeed="10"/>
	<trip id="20" depart="146.0" from="ce6" to="ce1" type="standard_car" departLane="random" departSpeed="10"/>
	<trip id="21" depart="152.0" from="ce6" to="ce3" type="standard_car" departLane="random" departSpeed="10"/>
	<trip id="22" depart="153.0" from="ce6" to="ce1" type="standard_car" departLane="random" departSpeed="10"/>
	<trip id="23" depart="168.0" from="ce6" to="ce1" type="standard_car" departLane="random" departSpeed="10"/>
	<trip id="24" depart="173.0" from="ce8" to="ce3" type="standard_car" departLane="random" departSpeed="10"/>
	<trip id="25" depart="174.0" from="ce8" to="ce3" type="standard_car" departLane="random" departSpeed="10"/>
	<trip id="26" depart="180.0" from="ce8" to="ce3" type="standard_car" departLane="random" departSpeed="10"/>
	<trip id="27" depart="189.0" from="ce8" to="ce7" type="standard_car" departLane="random" departSpeed="10"/>
	<trip id="28" depart="192.0" from="ce2" to="ce7" type="standard_car" departLane="random" departSpeed="10"/>
	<trip id="29" depart="195.0" from="ce8" to="ce3" type="standard_car" departLane="random" departSpeed="10"/>
	<trip id="30" depart="209.0" from="ce8" to="ce5" type="standard_car" departLane="random" departSpeed="10"/>
	<trip id="31" depart="210.0" from="ce2" to="ce5" type="standard_car" departLane="random" departSpeed="10"/>
	<trip id="32" depart="211.0" from="ce6" to="ce1" type="standard_car" departLane="random" departSpeed="10"/>
	<trip id="33" depart="221.0" from="ce6" to="ce7" type="standard_car" departLane="random" departSpeed="10"/>
	<trip id="34" depart="224.0" from="ce4" to="ce5" type="standard_car" departLane="random" departSpeed="10"/>
	<trip id="35" depart="240.0" from="ce8" to="ce3" type="standard_car" departLane="random" departSpeed="10"/>
	<trip id="36" depart="242.0" from="ce6" to="ce1" type="standard_car" departLane="random" departSpeed="10"/>
	<trip id="37" depart="244.0" from="ce8" to="ce5" type="standard_car" departLane="random" departSpeed="10"/>
	<trip id="38" depart="250.0" from="ce8" to="ce1" type="standard_car" departLane="random" departSpeed="10"/>
	<trip id="39" depart="257.0" from="ce4" to="ce5" type="standard_car" departLane="random" departSpeed="10"/>
	<trip id="40" depart="273.0" from="ce6" to="ce3" type="standard_car" departLane="random" departSpeed="10"/>
	<trip id="41" depart="275.0" from="ce8" to="ce1" type="standard_car" departLane="random" departSpeed="10"/>
	<trip id="42" depart="276.0" from="ce6" to="ce1" type="standard_car" departLane="random" departSpeed="10"/>
	<trip id="43" depart="291.0" from="ce4" to="ce5" type="standard_car" departLane="random" departSpeed="10"/>
	<trip id="44" depart="315.0" from="ce6" to="ce7" type="standard_car" departLane="random" departSpeed="10"/>
	<trip id="45" depart="315.0" from="ce2" to="ce3" type="standard_car" departLane="random" departSpeed="10"/>
	<trip id="46" depart="316.0" from="ce8" to="ce1" type="standard_car" departLane="random" departSpeed="10"/>
	<trip id="47" depart="326.0" from="ce6" to="ce3" type="standard_car" departLane="random" departSpeed="10"/>
	<trip id="48" depart="333.0" from="ce4" to="ce1" type="standard_car" departLane="random" departSpeed="10"/>
	<trip id="49" depart="335.0" from="ce6" to="ce1" type="standard_car" departLane="random" departSpeed="10"/>
	<trip id="50" depart="337.0" from="ce8" to="ce5" type="standard_car" departLane="random" departSpeed="10"/>
	<trip id="51" depart="338.0" from="ce8" to="ce3" type="standard_car" departLane="random" departSpeed="10"/>
	<trip id="52" depart="341.0" from="ce8" to="ce1" type="standard_car" departLane="random" departSpeed="10"/>
	<trip id="53" depart="369.0" from="ce6" to="ce7" type="standard_car" departLane="random" departSpeed="10"/>
	<trip id="54" depart="372.0" from="ce8" to="ce3" type="standard_car" departLane="random" departSpeed="10"/>
	<trip id="55" depart="378.0" from="ce6" to="ce3" type="standard_car" departLane="random" departSpeed="10"/>
	<trip id="56" depart="378.0" from="ce6" to="ce1" type="standard_car" departLane="random" departSpeed="10"/>
	<trip id="57" depart="383.0" from="ce6" to="ce5" type="standard_car" departLane="random" departSpeed="10"/>
	<trip id="58" depart="404.0" from="ce2" to="ce3" type="standard_car" departLane="random" departSpeed="10"/>
	<trip id="59" depart="410.0" from="ce8" to="ce5" type="standard_car" departLane="random" departSpeed="10"/>
	<trip id="60" depart="416.0" from="ce8" to="ce3" type="standard_car" departLane="random" departSpeed="10"/>
	<trip id="61" depart="420.0" from="ce8" to="ce3" type="standard_car" departLane="random" departSpeed="10"/>
	<trip id="62" depart="428.0" from="ce2" to="ce7" type="standard_car" departLane="random" departSpeed="10"/>
	<trip id="63" depart="437.0" from="ce2" to="ce3" type="standard_car" departLane="random" departSpeed="10"/>
	<trip id="64" depart="439.0" from="ce8" to="ce3" type="standard_car" departLane="random" departSpeed="10"/>
	<trip id="65" depart="454.0" from="ce6" to="ce1" type="standard_car" departLane="random" departSpeed="10"/>
	<trip id="66" depart="456.0" from="ce8" to="ce3" type="standard_car" departLane="random" departSpeed="10"/>
	<trip id="67" depart="458.0" from="ce6" to="ce3" type="standard_car" departLane="random" departSpeed="10"/>
	<trip id="68" depart="463.0" from="ce6" to="ce3" type="standard_car" departLane="random" departSpeed="10"/>
	<trip id="69" depart="489.0" from="ce8" to="ce3" type="standard_car" departLane="random" departSpeed="10"/>
	<trip id="70" depart="493.0" from="ce6" to="ce1" type="standard_car" departLane="random" departSpeed="10"/>
	<trip id="71" depart="523.0" from="ce2" to="ce7" type="standard_car" departLane="random" departSpeed="10"/>
	<trip id="72" depart="526.0" from="ce8" to="ce5" type="standard_car" departLane="random" departSpeed="10"/>
	<trip id="73" depart="539.0" from="ce4" to="ce5" type="standard_car" departLane="random" departSpeed="10"/>
	<trip id="74" depart="542.0" from="ce2" to="ce3" type="standard_car" departLane="random" departSpeed="10"/>
	<trip id="75" depart="549.0" from="ce4" to="ce7" type="standard_car" departLane="random" departSpeed="10"/>
	<trip id="76" depart="566.0" from="ce8" to="ce3" type="standard_car" departLane="random" departSpeed="10"/>
	<trip id="77" depart="581.0" from="ce4" to="ce1" type="standard_car" departLane="random" departSpeed="10"/>
	<trip id="78" depart="587.0" from="ce6" to="ce3" type="standard_car" departLane="random" departSpeed="10"/>
	<trip id="79" depart="638.0" from="ce8" to="ce5" type="standard_car" departLane="random" departSpeed="10"/>
	<trip id="80" depart="645.0" from="ce8" to="ce3" type="standard_car" departLane="random" departSpeed="10"/>
	<trip id="81" depart="646.0" from="ce8" to="ce5" type="standard_car" departLane="random" departSpeed="10"/>
	<trip id="82" depart="652.0" from="ce8" to="ce1" type="standard_car" departLane="random" departSpeed="10"/>
	<trip id="83" depart="652.0" from="ce8" to="ce1" type="standard_car" departLane="random" departSpeed="10"/>
	<trip id="84" depart="660.0" from="ce6" to="ce7" type="standard_car" departLane="random" departSpeed="10"/>
	<trip id="85" depart="669.0" from="ce8" to="ce5" type="standard_car" departLane="random" departSpeed="10"/>
	<trip id="86" depart="673.0" from="ce6" to="ce3" type="standard_car" departLane="random" departSpeed="10"/>
	<trip id="87" depart="676.0" from="ce2" to="ce3" type="standard_car" departLane="random" departSpeed="10"/>
	<trip id="88" depart="681.0" from="ce8" to="ce3" type="standard_car" departLane="random" departSpeed="10"/>
	<trip id="89" depart="687.0" from="ce6" to="ce3" type="standard_car" departLane="random" departSpeed="10"/>
	<trip id="90" depart="687.0" from="ce8" to="ce1" type="standard_car" departLane="random" departSpeed="10"/>
	<trip id="91" depart="689.0" from="ce6" to="ce3" type="standard_car" departLane="random" departSpeed="10"/>
	<trip id="92" depart="697.0" from="ce8" to="ce1" type="standard_car" departLane="random" departSpeed="10"/>
	<trip id="93" depart="698.0" from="ce6" to="ce5" type="standard_car" departLane="random" departSpeed="10"/>
	<trip id="94" depart="701.0" from="ce8" to="ce5" type="standard_car" departLane="random" departSpeed="10"/>
	<trip id="95" depart="702.0" from="ce6" to="ce3" type="standard_car" departLane="random" departSpeed="10"/>
	<trip id="96" depart="704.0" from="ce8" to="ce5" type="standard_car" departLane="random" departSpeed="10"/>
	<trip id="97" depart="710.0" from="ce8" to="ce1" type="standard_car" departLane="random" departSpeed="10"/>
	<trip id="98" depart="713.0" from="ce8" to="ce7" type="standard_car" departLane="random" departSpeed="10"/>
	<trip id="99" depart="716.0" from="ce2" to="ce5" type="standard_car" departLane="random" departSpeed="10"/>
	<trip id="100" depart="726.0" from="ce4" to="ce1" type="standard_car" departLane="random" departSpeed="10"/>
	<trip id="101" depart="749.0" from="ce2" to="ce7" type="standard_car" departLane="random" departSpeed="10"/>
	<trip id="102" depart="750.0" from="ce2" to="ce5" type="standard_car" departLane="random" departSpeed="10"/>
	<trip id="103" depart="760.0" from="ce6" to="ce1" type="standard_car" departLane="random" departSpeed="10"/>
	<trip id="104" depart="771.0" from="ce8" to="ce1" type="standard_car" departLane="random" departSpeed="10"/>
	<trip id="105" depart="787.0" from="ce6" to="ce1" type="standard_car" departLane="random" departSpeed="10"/>
	<trip id="106" depart="790.0" from="ce6" to="ce7" type="standard_car" departLane="random" departSpeed="10"/>
	<trip id="107" depart="808.0" from="ce2" to="ce7" type="standard_car" departLane="random" departSpeed="10"/>
	<trip id="108" depart="822.0" from="ce8" to="ce3" type="standard_car" departLane="random" departSpeed="10"/>
	<trip id="109" depart="825.0" from="ce8" to="ce3" type="standard_car" departLane="random" departSpeed="10"/>
	<trip id="110" depart="826.0" from="ce6" to="ce3" type="standard_car" departLane="random" departSpeed="10"/>
	<trip id="111" depart="838.0" from="ce2" to="ce7" type="standard_car" departLane="random" departSpeed="10"/>
	<trip id="112" depart="839.0" from="ce6" to="ce3" type="standard_car" departLane="random" departSpeed="10"/>
	<trip id="113" depart="840.0" from="ce2" to="ce7" type="standard_car" departLane="random" departSpeed="10"/>
	<trip id="114" depart="856.0" from="ce8" to="ce1" type="standard_car" departLane="random" departSpeed="10"/>
	<trip id="115" depart="856.0" from="ce6" to="ce7" type="standard_car" departLane="random" departSpeed="10"/>
	<trip id="116" depart="857.0" from="ce6" to="ce3" type="standard_car" departLane="random" departSpeed="10"/>
	<trip id="117" depart="883.0" from="ce8" to="ce5" type="standard_car" departLane="random" departSpeed="10"/>
	<trip id="118" depart="892.0" from="ce8" to="ce3" type="standard_car" departLane="random" departSpeed="10"/>
	<trip id="119" depart="895.0" from="ce8" to="ce5" type="standard_car" departLane="random" departSpeed="10"/>
	<trip id="120" depart="896.0" from="ce6" to="ce3" type="standard_car" departLane="random" departSpeed="10"/>
	<trip id="121" depart="903.0" from="ce8" to="ce3" type="standard_car" departLane="random" departSpeed="10"/>
	<trip id="122" depart="913.0" from="ce8" to="ce5" type="standard_car" departLane="random" departSpeed="10"/>
	<trip id="123" depart="926.0" from="ce8" to="ce5" type="standard_car" departLane="random" departSpeed="10"/>
	<trip id="124" depart="930.0" from="ce8" to="ce5" type="standard_car" departLane="random" departSpeed="10"/>
	<trip id="125" depart="934.0" from="ce4" to="ce5" type="standard_car" departLane="random" departSpeed="10"/>
	<trip id="126" depart="941.0" from="ce6" to="ce3" type="standard_car" departLane="random" departSpeed="10"/>
	<trip id="127" depart="943.0" from="ce2" to="ce5" type="standard_car" departLane="random" departSpeed="10"/>
	<trip id="128" depart="947.0" from="ce4" to="ce7" type="standard_car" departLane="random" departSpeed="10"/>
	<trip id="129" depart="955.0" from="ce8" to="ce3" type="standard_car" departLane="random" departSpeed="10"/>
	<trip id="130" depart="956.0" from="ce6" to="ce1" type="standard_car" departLane="random" departSpeed="10"/>
	<trip id="131" depart="980.0" from="ce4" to="ce5" type="standard_car" departLane="random" departSpeed="10"/>
	<trip id="132" depart="982.0" from="ce8" to="ce1" type="standard_car" departLane="random" departSpeed="10"/>
	<trip id="133" depart="986.0" from="ce8" to="ce5" type="standard_car" departLane="random" departSpeed="10"/>
	<trip id="134" depart="987.0" from="ce8" to="ce3" type="standard_car" departLane="random" departSpeed="10"/>
	<trip id="135" depart="997.0" from="ce8" to="ce1" type="standard_car" departLane="random" departSpeed="10"/>
	<trip id="136" depart="1002.0" from="ce6" to="ce3" type="standard_car" departLane="random" departSpeed="10"/>
	<trip id="137" depart="1008.0" from="ce2" to="ce7" type="standard_car" departLane="random" departSpeed="10"/>
	<trip id="138" depart="1009.0" from="ce8" to="ce3" type="standard_car" departLane="random" departSpeed="10"/>
	<trip id="139" depart="1013.0" from="ce6" to="ce5" type="standard_car" departLane="random" departSpeed="10"/>
	<trip id="140" depart="1032.0" from="ce8" to="ce5" type="standard_car" departLane="random" departSpeed="10"/>
	<trip id="141" depart="1035.0" from="ce8" to="ce3" type="standard_car" departLane="random" departSpeed="10"/>
	<trip id="142" depart="1037.0" from="ce8" to="ce1" type="standard_car" departLane="random" departSpeed="10"/>
	<trip id="143" depart="1041.0" from="ce8" to="ce1" type="standard_car" departLane="random" departSpeed="10"/>
	<trip id="144" depart="1055.0" from="ce2" to="ce3" type="standard_car" departLane="random" departSpeed="10"/>
	<trip id="145" depart="1059.0" from="ce8" to="ce1" type="standard_car" departLane="random" departSpeed="10"/>
	<trip id="146" depart="1066.0" from="ce6" to="ce5" type="standard_car" departLane="random" departSpeed="10"/>
	<trip id="147" depart="1085.0" from="ce8" to="ce1" type="standard_car" departLane="random" departSpeed="10"/>
	<trip id="148" depart="1097.0" from="ce2" to="ce7" type="standard_car" departLane="random" departSpeed="10"/>
	<trip id="149" depart="1097.0" from="ce6" to="ce1" type="standard_car" departLane="random" departSpeed="10"/>
	<trip id="150" depart="1098.0" from="ce6" to="ce3" type="standard_car" departLane="random" departSpeed="10"/>
	<trip id="151" depart="1098.0" from="ce8" to="ce1" type="standard_car" departLane="random" departSpeed="10"/>
	<trip id="152" depart="1098.0" from="ce6" to="ce1" type="standard_car" departLane="random" departSpeed="10"/>
	<trip id="153" depart="1105.0" from="ce8" to="ce1" type="standard_car" departLane="random" departSpeed="10"/>
	<trip id="154" depart="1111.0" from="ce6" to="ce1" type="standard_car" departLane="random" departSpeed="10"/>
	<trip id="155" depart="1113.0" from="ce8" to="ce7" type="standard_car" departLane="random" departSpeed="10"/>
	<trip id="156" depart="1123.0" from="ce2" to="ce5" type="standard_car" departLane="random" departSpeed="10"/>
	<trip id="157" depart="1131.0" from="ce8" to="ce1" type="standard_car" departLane="random" departSpeed="10"/>
	<trip id="158" depart="1144.0" from="ce8" to="ce3" type="standard_car" departLane="random" departSpeed="10"/>
	<trip id="159" depart="1154.0" from="ce8" to="ce1" type="standard_car" departLane="random" departSpeed="10"/>
	<trip id="160" depart="1162.0" from="ce4" to="ce5" type="standard_car" departLane="random" departSpeed="10"/>
	<trip id="161" depart="1165.0" from="ce8" to="ce1" type="standard_car" departLane="random" departSpeed="10"/>
	<trip id="162" depart="1167.0" from="ce6" to="ce1" type="standard_car" departLane="random" departSpeed="10"/>
	<trip id="163" depart="1167.0" from="ce8" to="ce3" type="standard_car" departLane="random" departSpeed="10"/>
	<trip id="164" depart="1178.0" from="ce8" to="ce1" type="standard_car" departLane="random" departSpeed="10"/>
	<trip id="165" depart="1179.0" from="ce8" to="ce5" type="standard_car" departLane="random" departSpeed="10"/>
	<trip id="166" depart="1183.0" from="ce8" to="ce1" type="standard_car" departLane="random" departSpeed="10"/>
	<trip id="167" depart="1193.0" from="ce6" to="ce7" type="standard_car" departLane="random" departSpeed="10"/>
	<trip id="168" depart="1195.0" from="ce8" to="ce3" type="standard_car" departLane="random" departSpeed="10"/>
	<trip id="169" depart="1195.0" from="ce8" to="ce1" type="standard_car" departLane="random" departSpeed="10"/>
	<trip id="170" depart="1208.0" from="ce8" to="ce5" type="standard_car" departLane="random" departSpeed="10"/>
	<trip id="171" depart="1219.0" from="ce6" to="ce1" type="standard_car" departLane="random" departSpeed="10"/>
	<trip id="172" depart="1230.0" from="ce4" to="ce7" type="standard_car" departLane="random" departSpeed="10"/>
	<trip id="173" depart="1248.0" from="ce8" to="ce3" type="standard_car" departLane="random" departSpeed="10"/>
	<trip id="174" depart="1248.0" from="ce8" to="ce5" type="standard_car" departLane="random" departSpeed="10"/>
	<trip id="175" depart="1261.0" from="ce6" to="ce1" type="standard_car" departLane="random" departSpeed="10"/>
	<trip id="176" depart="1265.0" from="ce8" to="ce7" type="standard_car" departLane="random" departSpeed="10"/>
	<trip id="177" depart="1271.0" from="ce8" to="ce5" type="standard_car" departLane="random" departSpeed="10"/>
	<trip id="178" depart="1283.0" from="ce8" to="ce5" type="standard_car" departLane="random" departSpeed="10"/>
	<trip id="179" depart="1295.0" from="ce8" to="ce1" type="standard_car" departLane="random" departSpeed="10"/>
	<trip id="180" depart="1301.0" from="ce8" to="ce3" type="standard_car" departLane="random" departSpeed="10"/>
	<trip id="181" depart="1310.0" from="ce6" to="ce1" type="standard_car" departLane="random" departSpeed="10"/>
	<trip id="182" depart="1313.0" from="ce4" to="ce1" type="standard_car" departLane="random" departSpeed="10"/>
	<trip id="183" depart="1315.0" from="ce8" to="ce5" type="standard_car" departLane="random" departSpeed="10"/>
	<trip id="184" depart="1316.0" from="ce6" to="ce3" type="standard_car" departLane="random" departSpeed="10"/>
	<trip id="185" depart="1317.0" from="ce4" to="ce5" type="standard_car" departLane="random" departSpeed="10"/>
	<trip id="186" depart="1319.0" from="ce2" to="ce7" type="standard_car" departLane="random" departSpeed="10"/>
	<trip id="187" depart="1336.0" from="ce4" to="ce5" type="standard_car" departLane="random" departSpeed="10"/>
	<trip id="188" depart="1344.0" from="ce8" to="ce3" type="standard_car" departLane="random" departSpeed="10"/>
	<trip id="189" depart="1345.0" from="ce8" to="ce5" type="standard_car" departLane="random" departSpeed="10"/>
	<trip id="190" depart="1349.0" from="ce2" to="ce3" type="standard_car" departLane="random" departSpeed="10"/>
	<trip id="191" depart="1354.0" from="ce6" to="ce1" type="standard_car" departLane="random" departSpeed="10"/>
	<trip id="192" depart="1364.0" from="ce6" to="ce3" type="standard_car" departLane="random" departSpeed="10"/>
	<trip id="193" depart="1368.0" from="ce8" to="ce1" type="standard_car" departLane="random" departSpeed="10"/>
	<trip id="194" depart="1396.0" from="ce8" to="ce1" type="standard_car" departLane="random" departSpeed="10"/>
	<trip id="195" depart="1408.0" from="ce8" to="ce5" type="standard_car" departLane="random" departSpeed="10"/>
	<trip id="196" depart="1408.0" from="ce8" to="ce5" type="standard_car" departLane="random" departSpeed="10"/>
	<trip id="197" depart="1412.0" from="ce6" to="ce3" type="standard_car" departLane="random" departSpeed="10"/>
	<trip id="198" depart="1415.0" from="ce2" to="ce7" type="standard_car" departLane="random" departSpeed="10"/>
	<trip id="199" depart="1417.0" from="ce8" to="ce5" type="standard_car" departLane="random" departSpeed="10"/>
	<trip id="200" depart="1446.0" from="ce6" to="ce7" type="standard_car" departLane="random" departSpeed="10"/>
	<trip id="201" depart="1449.0" from="ce8" to="ce3" type="standard_car" departLane="random" departSpeed="10"/>
	<trip id="202" depart="1450.0" from="ce8" to="ce5" type="standard_car" departLane="random" departSpeed="10"/>
	<trip id="203" depart="1452.0" from="ce2" to="ce5" type="standard_car" departLane="random" departSpeed="10"/>
	<trip id="204" depart="1457.0" from="ce8" to="ce5" type="standard_car" departLane="random" departSpeed="10"/>
	<trip id="205" depart="1467.0" from="ce8" to="ce1" type="standard_car" departLane="random" departSpeed="10"/>
	<trip id="206" depart="1472.0" from="ce6" to="ce3" type="standard_car" departLane="random" departSpeed="10"/>
	<trip id="207" depart="1480.0" from="ce2" to="ce5" type="standard_car" departLane="random" departSpeed="10"/>
	<trip id="208" depart="1480.0" from="ce8" to="ce3" type="standard_car" departLane="random" departSpeed="10"/>
	<trip id="209" depart="1482.0" from="ce8" to="ce5" type="standard_car" departLane="random" departSpeed="10"/>
	<trip id="210" depart="1483.0" from="ce6" to="ce1" type="standard_car" departLane="random" departSpeed="10"/>
	<trip id="211" depart="1487.0" from="ce2" to="ce5" type="standard_car" departLane="random" departSpeed="10"/>
	<trip id="212" depart="1489.0" from="ce8" to="ce1" type="standard_car" departLane="random" departSpeed="10"/>
	<trip id="213" depart="1502.0" from="ce6" to="ce3" type="standard_car" departLane="random" departSpeed="10"/>
	<trip id="214" depart="1509.0" from="ce6" to="ce3" type="standard_car" departLane="random" departSpeed="10"/>
	<trip id="215" depart="1510.0" from="ce8" to="ce5" type="standard_car" departLane="random" departSpeed="10"/>
	<trip id="216" depart="1513.0" from="ce8" to="ce1" type="standard_car" departLane="random" departSpeed="10"/>
	<trip id="217" depart="1515.0" from="ce8" to="ce5" type="standard_car" departLane="random" departSpeed="10"/>
	<trip id="218" depart="1527.0" from="ce6" to="ce1" type="standard_car" departLane="random" departSpeed="10"/>
	<trip id="219" depart="1529.0" from="ce8" to="ce3" type="standard_car" departLane="random" departSpeed="10"/>
	<trip id="220" depart="1532.0" from="ce6" to="ce7" type="standard_car" departLane="random" departSpeed="10"/>
	<trip id="221" depart="1538.0" from="ce2" to="ce7" type="standard_car" departLane="random" departSpeed="10"/>
	<trip id="222" depart="1551.0" from="ce8" to="ce5" type="standard_car" departLane="random" departSpeed="10"/>
	<trip id="223" depart="1554.0" from="ce8" to="ce3" type="standard_car" departLane="random" departSpeed="10"/>
	<trip id="224" depart="1556.0" from="ce8" to="ce3" type="standard_car" departLane="random" departSpeed="10"/>
	<trip id="225" depart="1559.0" from="ce8" to="ce5" type="standard_car" departLane="random" departSpeed="10"/>
	<trip id="226" depart="1563.0" from="ce2" to="ce3" type="standard_car" departLane="random" departSpeed="10"/>
	<trip id="227" depart="1564.0" from="ce6" to="ce3" type="standard_car" departLane="random" departSpeed="10"/>
	<trip id="228" depart="1566.0" from="ce8" to="ce3" type="standard_car" departLane="random" departSpeed="10"/>
	<trip id="229" depart="1569.0" from="ce8" to="ce3" type="standard_car" departLane="random" departSpeed="10"/>
	<trip id="230" depart="1571.0" from="ce2" to="ce3" type="standard_car" departLane="random" departSpeed="10"/>
	<trip id="231" depart="1581.0" from="ce6" to="ce5" type="standard_car" departLane="random" departSpeed="10"/>
	<trip id="232" depart="1588.0" from="ce6" to="ce3" type="standard_car" departLane="random" departSpeed="10"/>
	<trip id="233" depart="1590.0" from="ce6" to="ce7" type="standard_car" departLane="random" departSpeed="10"/>
	<trip id="234" depart="1592.0" from="ce6" to="ce5" type="standard_car" departLane="random" departSpeed="10"/>
	<trip id="235" depart="1595.0" from="ce8" to="ce3" type="standard_car" departLane="random" departSpeed="10"/>
	<trip id="236" depart="1609.0" from="ce6" to="ce3" type="standard_car" departLane="random" departSpeed="10"/>
	<trip id="237" depart="1618.0" from="ce6" to="ce7" type="standard_car" departLane="random" departSpeed="10"/>
	<trip id="238" depart="1629.0" from="ce8" to="ce1" type="standard_car" departLane="random" departSpeed="10"/>
	<trip id="239" depart="1632.0" from="ce8" to="ce5" type="standard_car" departLane="random" departSpeed="10"/>
	<trip id="240" depart="1634.0" from="ce6" to="ce1" type="standard_car" departLane="random" departSpeed="10"/>
	<trip id="241" depart="1638.0" from="ce8" to="ce1" type="standard_car" departLane="random" departSpeed="10"/>
	<trip id="242" depart="1642.0" from="ce6" to="ce1" type="standard_car" departLane="random" departSpeed="10"/>
	<trip id="243" depart="1645.0" from="ce6" to="ce1" type="standard_car" departLane="random" departSpeed="10"/>
	<trip id="244" depart="1646.0" from="ce8" to="ce5" type="standard_car" departLane="random" departSpeed="10"/>
	<trip id="245" depart="1647.0" from="ce8" to="ce5" type="standard_car" departLane="random" departSpeed="10"/>
	<trip id="246" depart="1648.0" from="ce8" to="ce5" type="standard_car" departLane="random" departSpeed="10"/>
	<trip id="247" depart="1649.0" from="ce8" to="ce1" type="standard_car" departLane="random" departSpeed="10"/>
	<trip id="248" depart="1656.0" from="ce8" to="ce5" type="standard_car" departLane="random" departSpeed="10"/>
	<trip id="249" depart="1659.0" from="ce8" to="ce3" type="standard_car" departLane="random" departSpeed="10"/>
	<trip id="250" depart="1659.0" from="ce8" to="ce3" type="standard_car" departLane="random" departSpeed="10"/>
	<trip id="251" depart="1665.0" from="ce8" to="ce3" type="standard_car" departLane="random" departSpeed="10"/>
	<trip id="252" depart="1674.0" from="ce4" to="ce1" type="standard_car" departLane="random" departSpeed="10"/>
	<trip id="253" depart="1678.0" from="ce6" to="ce1" type="standard_car" departLane="random" departSpeed="10"/>
	<trip id="254" depart="1693.0" from="ce8" to="ce5" type="standard_car" departLane="random" departSpeed="10"/>
	<trip id="255" depart="1704.0" from="ce4" to="ce7" type="standard_car" departLane="random" departSpeed="10"/>
	<trip id="256" depart="1710.0" from="ce4" to="ce3" type="standard_car" departLane="random" departSpeed="10"/>
	<trip id="257" depart="1713.0" from="ce6" to="ce3" type="standard_car" departLane="random" departSpeed="10"/>
	<trip id="258" depart="1730.0" from="ce6" to="ce7" type="standard_car" departLane="random" departSpeed="10"/>
	<trip id="259" depart="1736.0" from="ce2" to="ce7" type="standard_car" departLane="random" departSpeed="10"/>
	<trip id="260" depart="1750.0" from="ce2" to="ce3" type="standard_car" departLane="random" departSpeed="10"/>
	<trip id="261" depart="1779.0" from="ce8" to="ce1" type="standard_car" departLane="random" departSpeed="10"/>
	<trip id="262" depart="1779.0" from="ce8" to="ce7" type="standard_car" departLane="random" departSpeed="10"/>
	<trip id="263" depart="1782.0" from="ce4" to="ce5" type="standard_car" departLane="random" departSpeed="10"/>
	<trip id="264" depart="1784.0" from="ce8" to="ce5" type="standard_car" departLane="random" departSpeed="10"/>
	<trip id="265" depart="1785.0" from="ce6" to="ce1" type="standard_car" departLane="random" departSpeed="10"/>
	<trip id="266" depart="1800.0" from="ce6" to="ce7" type="standard_car" departLane="random" departSpeed="10"/>
	<trip id="267" depart="1822.0" from="ce6" to="ce5" type="standard_car" departLane="random" departSpeed="10"/>
	<trip id="268" depart="1826.0" from="ce6" to="ce3" type="standard_car" departLane="random" departSpeed="10"/>
	<trip id="269" depart="1831.0" from="ce8" to="ce1" type="standard_car" departLane="random" departSpeed="10"/>
	<trip id="270" depart="1848.0" from="ce2" to="ce7" type="standard_car" departLane="random" departSpeed="10"/>