<?xml version="1.0" ?>
<tlLogics>
	<tlLogic id="TL1" type="static" programID="0" offset="0">
		<phase duration="100" state="GGGGrrrrrrGGGGrrrrrr"/>
		<phase duration="100" state="yyyyrrrrrryyyyrrrrrr"/>
		<phase duration="100" state="rrrrrrrrrrrrrrrrrrrr"/>
		<phase duration="100" state="rrrrGrrrrrrrrrGrrrrr"/>
		<phase duration="100" state="rrrryrrrrrrrrryrrrrr"/>
		<phase duration="100" state="rrrrrrrrrrrrrrrrrrrr"/>
		<phase duration="100" state="rrrrrGGGGrrrrrrGGGGr"/>
		<phase duration="100" state="rrrrryyyyrrrrrryyyyr"/>
		<phase duration="100" state="rrrrrrrrrrrrrrrrrrrr"/>
		<phase duration="100" state="rrrrrrrrrGrrrrrrrrrG"/>
		<phase duration="100" state="rrrrrrrrryrrrrrrrrry"/>
		<phase duration="100" state="rrrrrrrrrrrrrrrrrrrr"/>
	</tlLogic>
</tlLogics>
