<?xml version="1.0" ?>
<routes>
	<vType accel="1.0" decel="4.5" id="standard_car" length="5.0" minGap="2.5" maxSpeed="25" sigma="0.5"/>
	<trip id="0" depart="3.0" from="ce8" to="ce1" type="standard_car" departLane="random" departSpeed="10"/>
	<trip id="1" depart="8.0" from="ce8" to="ce1" type="standard_car" departLane="random" departSpeed="10"/>
	<trip id="2" depart="15.0" from="ce2" to="ce5" type="standard_car" departLane="random" departSpeed="10"/>
	<trip id="3" depart="24.0" from="ce8" to="ce7" type="standard_car" departLane="random" departSpeed="10"/>
	<trip id="4" depart="47.0" from="ce4" to="ce5" type="standard_car" departLane="random" departSpeed="10"/>
	<trip id="5" depart="53.0" from="ce8" to="ce1" type="standard_car" departLane="random" departSpeed="10"/>
	<trip id="6" depart="54.0" from="ce4" to="ce5" type="standard_car" departLane="random" departSpeed="10"/>
	<trip id="7" depart="80.0" from="ce8" to="ce1" type="standard_car" departLane="random" departSpeed="10"/>
	<trip id="8" depart="86.0" from="ce8" to="ce1" type="standard_car" departLane="random" departSpeed="10"/>
	<trip id="9" depart="102.0" from="ce2" to="ce1" type="standard_car" departLane="random" departSpeed="10"/>
	<trip id="10" depart="108.0" from="ce8" to="ce3" type="standard_car" departLane="random" departSpeed="10"/>
	<trip id="11" depart="109.0" from="ce4" to="ce1" type="standard_car" departLane="random" departSpeed="10"/>
	<trip id="12" depart="142.0" from="ce8" to="ce3" type="standard_car" departLane="random" departSpeed="10"/>
	<trip id="13" depart="150.0" from="ce8" to="ce1" type="standard_car" departLane="random" departSpeed="10"/>
	<trip id="14" depart="151.0" from="ce8" to="ce5" type="standard_car" departLane="random" departSpeed="10"/>
	<trip id="15" depart="151.0" from="ce8" to="ce5" type="standard_car" departLane="random" departSpeed="10"/>
	<trip id="16" depart="164.0" from="ce4" to="ce7" type="standard_car" departLane="random" departSpeed="10"/>
	<trip id="17" depart="167.0" from="ce4" to="ce5" type="standard_car" departLane="random" departSpeed="10"/>
	<trip id="18" depart="177.0" from="ce4" to="ce5" type="standard_car" departLane="random" departSpeed="10"/>
	<trip id="19" depart="177.0" from="ce8" to="ce1" type="standard_car" departLane="random" departSpeed="10"/>
	<trip id="20" depart="183.0" from="ce8" to="ce1" type="standard_car" departLane="random" departSpeed="10"/>
	<trip id="21" depart="185.0" from="ce8" to="ce1" type="standard_car" departLane="random" departSpeed="10"/>
	<trip id="22" depart="200.0" from="ce2" to="ce5" type="standard_car" departLane="random" departSpeed="10"/>
	<trip id="23" depart="205.0" from="ce4" to="ce7" type="standard_car" departLane="random" departSpeed="10"/>
	<trip id="24" depart="208.0" from="ce8" to="ce3" type="standard_car" departLane="random" departSpeed="10"/>
	<trip id="25" depart="220.0" from="ce8" to="ce3" type="standard_car" departLane="random" departSpeed="10"/>
	<trip id="26" depart="222.0" from="ce2" to="ce5" type="standard_car" departLane="random" departSpeed="10"/>
	<trip id="27" depart="222.0" from="ce8" to="ce3" type="standard_car" departLane="random" departSpeed="10"/>
	<trip id="28" depart="224.0" from="ce2" to="ce7" type="standard_car" departLane="random" departSpeed="10"/>
	<trip id="29" depart="233.0" from="ce2" to="ce3" type="standard_car" departLane="random" departSpeed="10"/>
	<trip id="30" depart="241.0" from="ce4" to="ce5" type="standard_car" departLane="random" departSpeed="10"/>
	<trip id="31" depart="247.0" from="ce8" to="ce3" type="standard_car" departLane="random" departSpeed="10"/>
	<trip id="32" depart="252.0" from="ce8" to="ce7" type="standard_car" departLane="random" departSpeed="10"/>
	<trip id="33" depart="252.0" from="ce8" to="ce5" type="standard_car" departLane="random" departSpeed="10"/>
	<trip id="34" depart="261.0" from="ce4" to="ce5" type="standard_car" departLane="random" departSpeed="10"/>
	<trip id="35" depart="263.0" from="ce2" to="ce5" type="standard_car" departLane="random" departSpeed="10"/>
	<trip id="36" depart="265.0" from="ce8" to="ce5" type="standard_car" departLane="random" departSpeed="10"/>
	<trip id="37" depart="267.0" from="ce2" to="ce5" type="standard_car" departLane="random" departSpeed="10"/>
	<trip id="38" depart="272.0" from="ce8" to="ce5" type="standard_car" departLane="random" departSpeed="10"/>
	<trip id="39" depart="275.0" from="ce8" to="ce1" type="standard_car" departLane="random" departSpeed="10"/>
	<trip id="40" depart="287.0" from="ce4" to="ce5" type="standard_car" departLane="random" departSpeed="10"/>
	<trip id="41" depart="294.0" from="ce2" to="ce5" type="standard_car" departLane="random" departSpeed="10"/>
	<trip id="42" depart="298.0" from="ce8" to="ce1" type="standard_car" departLane="random" departSpeed="10"/>
	<trip id="43" depart="303.0" from="ce4" to="ce5" type="standard_car" departLane="random" departSpeed="10"/>
	<trip id="44" depart="303.0" from="ce4" to="ce7" type="standard_car" departLane="random" departSpeed="10"/>
	<trip id="45" depart="311.0" from="ce2" to="ce5" type="standard_car" departLane="random" departSpeed="10"/>
	<trip id="46" depart="314.0" from="ce8" to="ce3" type="standard_car" departLane="random" departSpeed="10"/>
	<trip id="47" depart="322.0" from="ce2" to="ce7" type="standard_car" departLane="random" departSpeed="10"/>
	<trip id="48" depart="323.0" from="ce8" to="ce3" type="standard_car" departLane="random" departSpeed="10"/>
	<trip id="49" depart="332.0" from="ce8" to="ce3" type="standard_car" departLane="random" departSpeed="10"/>
	<trip id="50" depart="332.0" from="ce8" to="ce5" type="standard_car" departLane="random" departSpeed="10"/>
	<trip id="51" depart="344.0" from="ce2" to="ce3" type="standard_car" departLane="random" departSpeed="10"/>
	<trip id="52" depart="360.0" from="ce8" to="ce1" type="standard_car" departLane="random" departSpeed="10"/>
	<trip id="53" depart="368.0" from="ce8" to="ce1" type="standard_car" departLane="random" departSpeed="10"/>
	<trip id="54" depart="384.0" from="ce8" to="ce1" type="standard_car" departLane="random" departSpeed="10"/>
	<trip id="55" depart="388.0" from="ce2" to="ce3" type="standard_car" departLane="random" departSpeed="10"/>
	<trip id="56" depart="408.0" from="ce8" to="ce5" type="standard_car" departLane="random" departSpeed="10"/>
	<trip id="57" depart="414.0" from="ce8" to="ce1" type="standard_car" departLane="random" departSpeed="10"/>
	<trip id="58" depart="434.0" from="ce2" to="ce3" type="standard_car" departLane="random" departSpeed="10"/>
	<trip id="59" depart="452.0" from="ce8" to="ce1" type="standard_car" departLane="random" departSpeed="10"/>
	<trip id="60" depart="455.0" from="ce8" to="ce1" type="standard_car" departLane="random" departSpeed="10"/>
	<trip id="61" depart="462.0" from="ce4" to="ce7" type="standard_car" departLane="random" departSpeed="10"/>
	<trip id="62" depart="465.0" from="ce8" to="ce5" type="standard_car" departLane="random" departSpeed="10"/>
	<trip id="63" depart="483.0" from="ce8" to="ce7" type="standard_car" departLane="random" departSpeed="10"/>
	<trip id="64" depart="496.0" from="ce6" to="ce7" type="standard_car" departLane="random" departSpeed="10"/>
	<trip id="65" depart="498.0" from="ce8" to="ce1" type="standard_car" departLane="random" departSpeed="10"/>
	<trip id="66" depart="502.0" from="ce4" to="ce3" type="standard_car" departLane="random" departSpeed="10"/>
	<trip id="67" depart="511.0" from="ce8" to="ce5" type="standard_car" departLane="random" departSpeed="10"/>
	<trip id="68" depart="516.0" from="ce4" to="ce5" type="standard_car" departLane="random" departSpeed="10"/>
	<trip id="69" depart="522.0" from="ce8" to="ce5" type="standard_car" departLane="random" departSpeed="10"/>
	<trip id="70" depart="523.0" from="ce8" to="ce1" type="standard_car" departLane="random" departSpeed="10"/>
	<trip id="71" depart="524.0" from="ce8" to="ce7" type="standard_car" departLane="random" departSpeed="10"/>
	<trip id="72" depart="547.0" from="ce8" to="ce5" type="standard_car" departLane="random" departSpeed="10"/>
	<trip id="73" depart="549.0" from="ce8" to="ce1" type="standard_car" departLane="random" departSpeed="10"/>
	<trip id="74" depart="551.0" from="ce2" to="ce3" type="standard_car" departLane="random" departSpeed="10"/>
	<trip id="75" depart="553.0" from="ce4" to="ce7" type="standard_car" departLane="random" departSpeed="10"/>
	<trip id="76" depart="563.0" from="ce4" to="ce7" type="standard_car" departLane="random" departSpeed="10"/>
	<trip id="77" depart="565.0" from="ce8" to="ce5" type="standard_car" departLane="random" departSpeed="10"/>
	<trip id="78" depart="566.0" from="ce8" to="ce3" type="standard_car" departLane="random" departSpeed="10"/>
	<trip id="79" depart="566.0" from="ce8" to="ce3" type="standard_car" departLane="random" departSpeed="10"/>
	<trip id="80" depart="569.0" from="ce4" to="ce5" type="standard_car" departLane="random" departSpeed="10"/>
	<trip id="81" depart="585.0" from="ce2" to="ce3" type="standard_car" departLane="random" departSpeed="10"/>
	<trip id="82" depart="592.0" from="ce6" to="ce1" type="standard_car" departLane="random" departSpeed="10"/>
	<trip id="83" depart="612.0" from="ce4" to="ce1" type="standard_car" departLane="random" departSpeed="10"/>
	<trip id="84" depart="612.0" from="ce8" to="ce5" type="standard_car" departLane="random" departSpeed="10"/>
	<trip id="85" depart="621.0" from="ce8" to="ce1" type="standard_car" departLane="random" departSpeed="10"/>
	<trip id="86" depart="622.0" from="ce8" to="ce1" type="standard_car" departLane="random" departSpeed="10"/>
	<trip id="87" depart="624.0" from="ce8" to="ce7" type="standard_car" departLane="random" departSpeed="10"/>
	<trip id="88" depart="626.0" from="ce2" to="ce7" type="standard_car" departLane="random" departSpeed="10"/>
	<trip id="89" depart="632.0" from="ce4" to="ce7" type="standard_car" departLane="random" departSpeed="10"/>
	<trip id="90" depart="638.0" from="ce8" to="ce1" type="standard_car" departLane="random" departSpeed="10"/>
	<trip id="91" depart="640.0" from="ce8" to="ce7" type="standard_car" departLane="random" departSpeed="10"/>
	<trip id="92" depart="662.0" from="ce6" to="ce7" type="standard_car" departLane="random" departSpeed="10"/>
	<trip id="93" depart="676.0" from="ce8" to="ce7" type="standard_car" departLane="random" departSpeed="10"/>
	<trip id="94" depart="691.0" from="ce8" to="ce1" type="standard_car" departLane="random" departSpeed="10"/>
	<trip id="95" depart="694.0" from="ce4" to="ce3" type="standard_car" departLane="random" departSpeed="10"/>
	<trip id="96" depart="707.0" from="ce8" to="ce7" type="standard_car" departLane="random" departSpeed="10"/>
	<trip id="97" depart="707.0" from="ce8" to="ce5" type="standard_car" departLane="random" departSpeed="10"/>
	<trip id="98" depart="716.0" from="ce8" to="ce1" type="standard_car" departLane="random" departSpeed="10"/>
	<trip id="99" depart="725.0" from="ce8" to="ce1" type="standard_car" departLane="random" departSpeed="10"/>
	<trip id="100" depart="731.0" from="ce2" to="ce7" type="standard_car" departLane="random" departSpeed="10"/>
	<trip id="101" depart="738.0" from="ce8" to="ce3" type="standard_car" departLane="random" departSpeed="10"/>
	<trip id="102" depart="739.0" from="ce8" to="ce1" type="standard_car" departLane="random" departSpeed="10"/>
	<trip id="103" depart="746.0" from="ce8" to="ce1" type="standard_car" departLane="random" departSpeed="10"/>
	<trip id="104" depart="754.0" from="ce8" to="ce3" type="standard_car" departLane="random" departSpeed="10"/>
	<trip id="105" depart="755.0" from="ce8" to="ce1" type="standard_car" departLane="random" departSpeed="10"/>
	<trip id="106" depart="755.0" from="ce8" to="ce1" type="standard_car" departLane="random" departSpeed="10"/>
	<trip id="107" depart="769.0" from="ce8" to="ce1" type="standard_car" departLane="random" departSpeed="10"/>
	<trip id="108" depart="777.0" from="ce4" to="ce7" type="standard_car" departLane="random" departSpeed="10"/>
	<trip id="109" depart="780.0" from="ce4" to="ce5" type="standard_car" departLane="random" departSpeed="10"/>
	<trip id="110" depart="785.0" from="ce4" to="ce1" type="standard_car" departLane="random" departSpeed="10"/>
	<trip id="111" depart="793.0" from="ce8" to="ce1" type="standard_car" departLane="random" departSpeed="10"/>
	<trip id="112" depart="799.0" from="ce8" to="ce1" type="standard_car" departLane="random" departSpeed="10"/>
	<trip id="113" depart="804.0" from="ce6" to="ce3" type="standard_car" departLane="random" departSpeed="10"/>
	<trip id="114" depart="810.0" from="ce2" to="ce7" type="standard_car" departLane="random" departSpeed="10"/>
	<trip id="115" depart="820.0" from="ce8" to="ce5" type="standard_car" departLane="random" departSpeed="10"/>
	<trip id="116" depart="830.0" from="ce8" to="ce3" type="standard_car" departLane="random" departSpeed="10"/>
	<trip id="117" depart="831.0" from="ce8" to="ce5" type="standard_car" departLane="random" departSpeed="10"/>
	<trip id="118" depart="851.0" from="ce8" to="ce5" type="standard_car" departLane="random" departSpeed="10"/>
	<trip id="119" depart="866.0" from="ce2" to="ce3" type="standard_car" departLane="random" departSpeed="10"/>
	<trip id="120" depart="874.0" from="ce8" to="ce5" type="standard_car" departLane="random" departSpeed="10"/>
	<trip id="121" depart="875.0" from="ce8" to="ce3" type="standard_car" departLane="random" departSpeed="10"/>
	<trip id="122" depart="888.0" from="ce8" to="ce3" type="standard_car" departLane="random" departSpeed="10"/>
	<trip id="123" depart="901.0" from="ce8" to="ce5" type="standard_car" departLane="random" departSpeed="10"/>
	<trip id="124" depart="907.0" from="ce4" to="ce1" type="standard_car" departLane="random" departSpeed="10"/>
	<trip id="125" depart="933.0" from="ce2" to="ce5" type="standard_car" departLane="random" departSpeed="10"/>
	<trip id="126" depart="937.0" from="ce8" to="ce3" type="standard_car" departLane="random" departSpeed="10"/>
	<trip id="127" depart="950.0" from="ce2" to="ce3" type="standard_car" departLane="random" departSpeed="10"/>
	<trip id="128" depart="952.0" from="ce4" to="ce5" type="standard_car" departLane="random" departSpeed="10"/>
	<trip id="129" depart="969.0" from="ce8" to="ce1" type="standard_car" departLane="random" departSpeed="10"/>
	<trip id="130" depart="973.0" from="ce2" to="ce7" type="standard_car" departLane="random" departSpeed="10"/>
	<trip id="131" depart="989.0" from="ce8" to="ce5" type="standard_car" departLane="random" departSpeed="10"/>
	<trip id="132" depart="992.0" from="ce8" to="ce1" type="standard_car" departLane="random" departSpeed="10"/>
	<trip id="133" depart="992.0" from="ce8" to="ce1" type="standard_car" departLane="random" departSpeed="10"/>
	<trip id="134" depart="1001.0" from="ce2" to="ce5" type="standard_car" departLane="random" departSpeed="10"/>
	<trip id="135" depart="1003.0" from="ce8" to="ce3" type="standard_car" departLane="random" departSpeed="10"/>
	<trip id="136" depart="1005.0" from="ce2" to="ce1" type="standard_car" departLane="random" departSpeed="10"/>
	<trip id="137" depart="1021.0" from="ce4" to="ce3" type="standard_car" departLane="random" departSpeed="10"/>
	<trip id="138" depart="1021.0" from="ce8" to="ce5" type="standard_car" departLane="random" departSpeed="10"/>
	<trip id="139" depart="1022.0" from="ce8" to="ce1" type="standard_car" departLane="random" departSpeed="10"/>
	<trip id="140" depart="1033.0" from="ce8" to="ce1" type="standard_car" departLane="random" departSpeed="10"/>
	<trip id="141" depart="1046.0" from="ce8" to="ce3" type="standard_car" departLane="random" departSpeed="10"/>
	<trip id="142" depart="1047.0" from="ce2" to="ce3" type="standard_car" departLane="random" departSpeed="10"/>
	<trip id="143" depart="1047.0" from="ce4" to="ce5" type="standard_car" departLane="random" departSpeed="10"/>
	<trip id="144" depart="1049.0" from="ce8" to="ce1" type="standard_car" departLane="random" departSpeed="10"/>
	<trip id="145" depart="1050.0" from="ce2" to="ce7" type="standard_car" departLane="random" departSpeed="10"/>
	<trip id="146" depart="1051.0" from="ce8" to="ce1" type="standard_car" departLane="random" departSpeed="10"/>
	<trip id="147" depart="1051.0" from="ce2" to="ce5" type="standard_car" departLane="random" departSpeed="10"/>
	<trip id="148" depart="1052.0" from="ce8" to="ce3" type="standard_car" departLane="random" departSpeed="10"/>
	<trip id="149" depart="1061.0" from="ce4" to="ce1" type="standard_car" departLane="random" departSpeed="10"/>
	<trip id="150" depart="1064.0" from="ce8" to="ce3" type="standard_car" departLane="random" departSpeed="10"/>
	<trip id="151" depart="1090.0" from="ce2" to="ce7" type="standard_car" departLane="random" departSpeed="10"/>
	<trip id="152" depart="1097.0" from="ce8" to="ce1" type="standard_car" departLane="random" departSpeed="10"/>
	<trip id="153" depart="1098.0" from="ce4" to="ce3" type="standard_car" departLane="random" departSpeed="10"/>
	<trip id="154" depart="1103.0" from="ce4" to="ce5" type="standard_car" departLane="random" departSpeed="10"/>
	<trip id="155" depart="1130.0" from="ce4" to="ce1" type="standard_car" departLane="random" departSpeed="10"/>
	<trip id="156" depart="1133.0" from="ce8" to="ce1" type="standard_car" departLane="random" departSpeed="10"/>
	<trip id="157" depart="1159.0" from="ce4" to="ce7" type="standard_car" departLane="random" departSpeed="10"/>
	<trip id="158" depart="1163.0" from="ce2" to="ce3" type="standard_car" departLane="random" departSpeed="10"/>
	<trip id="159" depart="1173.0" from="ce2" to="ce5" type="standard_car" departLane="random" departSpeed="10"/>
	<trip id="160" depart="1181.0" from="ce4" to="ce7" type="standard_car" departLane="random" departSpeed="10"/>
	<trip id="161" depart="1223.0" from="ce8" to="ce7" type="standard_car" departLane="random" departSpeed="10"/>
	<trip id="162" depart="1226.0" from="ce8" to="ce7" type="standard_car" departLane="random" departSpeed="10"/>
	<trip id="163" depart="1229.0" from="ce6" to="ce3" type="standard_car" departLane="random" departSpeed="10"/>
	<trip id="164" depart="1230.0" from="ce8" to="ce7" type="standard_car" departLane="random" departSpeed="10"/>
	<trip id="165" depart="1235.0" from="ce8" to="ce5" type="standard_car" departLane="random" departSpeed="10"/>
	<trip id="166" depart="1242.0" from="ce4" to="ce1" type="standard_car" departLane="random" departSpeed="10"/>
	<trip id="167" depart="1244.0" from="ce8" to="ce5" type="standard_car" departLane="random" departSpeed="10"/>
	<trip id="168" depart="1247.0" from="ce8" to="ce1" type="standard_car" departLane="random" departSpeed="10"/>
	<trip id="169" depart="1251.0" from="ce4" to="ce5" type="standard_car" departLane="random" departSpeed="10"/>
	<trip id="170" depart="1275.0" from="ce8" to="ce1" type="standard_car" departLane="random" departSpeed="10"/>
	<trip id="171" depart="1293.0" from="ce2" to="ce3" type="standard_car" departLane="random" departSpeed="10"/>
	<trip id="172" depart="1295.0" from="ce4" to="ce1" type="standard_car" departLane="random" departSpeed="10"/>
	<trip id="173" depart="1302.0" from="ce4" to="ce7" type="standard_car" departLane="random" departSpeed="10"/>
	<trip id="174" depart="1304.0" from="ce8" to="ce7" type="standard_car" departLane="random" departSpeed="10"/>
	<trip id="175" depart="1306.0" from="ce8" to="ce1" type="standard_car" departLane="random" departSpeed="10"/>
	<trip id="176" depart="1309.0" from="ce8" to="ce5" type="standard_car" departLane="random" departSpeed="10"/>
	<trip id="177" depart="1317.0" from="ce8" to="ce1" type="standard_car" departLane="random" departSpeed="10"/>
	<trip id="178" depart="1324.0" from="ce2" to="ce7" type="standard_car" departLane="random" departSpeed="10"/>
	<trip id="179" depart="1339.0" from="ce8" to="ce7" type="standard_car" departLane="random" departSpeed="10"/>
	<trip id="180" depart="1342.0" from="ce8" to="ce3" type="standard_car" departLane="random" departSpeed="10"/>
	<trip id="181" depart="1345.0" from="ce8" to="ce1" type="standard_car" departLane="random" departSpeed="10"/>
	<trip id="182" depart="1361.0" from="ce4" to="ce7" type="standard_car" departLane="random" departSpeed="10"/>
	<trip id="183" depart="1367.0" from="ce4" to="ce1" type="standard_car" departLane="random" departSpeed="10"/>
	<trip id="184" depart="1371.0" from="ce8" to="ce1" type="standard_car" departLane="random" departSpeed="10"/>
	<trip id="185" depart="1375.0" from="ce4" to="ce1" type="standard_car" departLane="random" departSpeed="10"/>
	<trip id="186" depart="1397.0" from="ce4" to="ce7" type="standard_car" departLane="random" departSpeed="10"/>
	<trip id="187" depart="1398.0" from="ce4" to="ce7" type="standard_car" departLane="random" departSpeed="10"/>
	<trip id="188" depart="1407.0" from="ce4" to="ce1" type="standard_car" departLane="random" departSpeed="10"/>
	<trip id="189" depart="1409.0" from="ce8" to="ce3" type="standard_car" departLane="random" departSpeed="10"/>
	<trip id="190" depart="1410.0" from="ce8" to="ce5" type="standard_car" departLane="random" departSpeed="10"/>
	<trip id="191" depart="1413.0" from="ce8" to="ce5" type="standard_car" departLane="random" departSpeed="10"/>
	<trip id="192" depart="1421.0" from="ce8" to="ce5" type="standard_car" departLane="random" departSpeed="10"/>
	<trip id="193" depart="1422.0" from="ce8" to="ce3" type="standard_car" departLane="random" departSpeed="10"/>
	<trip id="194" depart="1463.0" from="ce8" to="ce1" type="standard_car" departLane="random" departSpeed="10"/>
	<trip id="195" depart="1477.0" from="ce6" to="ce7" type="standard_car" departLane="random" departSpeed="10"/>
	<trip id="196" depart="1485.0" from="ce8" to="ce3" type="standard_car" departLane="random" departSpeed="10"/>
	<trip id="197" depart="1491.0" from="ce8" to="ce5" type="standard_car" departLane="random" departSpeed="10"/>
	<trip id="198" depart="1492.0" from="ce8" to="ce1" type="standard_car" departLane="random" departSpeed="10"/>
	<trip id="199" depart="1494.0" from="ce4" to="ce7" type="standard_car" departLane="random" departSpeed="10"/>
	<trip id="200" depart="1502.0" from="ce4" to="ce1" type="standard_car" departLane="random" departSpeed="10"/>
	<trip id="201" depart="1503.0" from="ce4" to="ce1" type="standard_car" departLane="random" departSpeed="10"/>
	<trip id="202" depart="1510.0" from="ce2" to="ce3" type="standard_car" departLane="random" departSpeed="10"/>
	<trip id="203" depart="1510.0" from="ce2" to="ce1" type="standard_car" departLane="random" departSpeed="10"/>
	<trip id="204" depart="1517.0" from="ce8" to="ce1" type="standard_car" departLane="random" departSpeed="10"/>
	<trip id="205" depart="1527.0" from="ce8" to="ce3" type="standard_car" departLane="random" departSpeed="10"/>
	<trip id="206" depart="1527.0" from="ce4" to="ce1" type="standard_car" departLane="random" departSpeed="10"/>
	<trip id="207" depart="1532.0" from="ce2" to="ce5" type="standard_car" departLane="random" departSpeed="10"/>
	<trip id="208" depart="1544.0" from="ce8" to="ce1" type="standard_car" departLane="random" departSpeed="10"/>
	<trip id="209" depart="1551.0" from="ce2" to="ce3" type="standard_car" departLane="random" departSpeed="10"/>
	<trip id="210" depart="1555.0" from="ce2" to="ce5" type="standard_car" departLane="random" departSpeed="10"/>
	<trip id="211" depart="1567.0" from="ce8" to="ce5" type="standard_car" departLane="random" departSpeed="10"/>
	<trip id="212" depart="1568.0" from="ce2" to="ce3" type="standard_car" departLane="random" departSpeed="10"/>
	<trip id="213" depart="1571.0" from="ce4" to="ce1" type="standard_car" departLane="random" departSpeed="10"/>
	<trip id="214" depart="1572.0" from="ce4" to="ce7" type="standard_car" departLane="random" departSpeed="10"/>
	<trip id="215" depart="1582.0" from="ce8" to="ce3" type="standard_car" departLane="random" departSpeed="10"/>
	<trip id="216" depart="1586.0" from="ce8" to="ce1" type="standard_car" departLane="random" departSpeed="10"/>
	<trip id="217" depart="1587.0" from="ce8" to="ce3" type="standard_car" departLane="random" departSpeed="10"/>
	<trip id="218" depart="1603.0" from="ce8" to="ce3" type="standard_car" departLane="random" departSpeed="10"/>
	<trip id="219" depart="1605.0" from="ce8" to="ce5" type="standard_car" departLane="random" departSpeed="10"/>
	<trip id="220" depart="1605.0" from="ce4" to="ce1" type="standard_car" departLane="random" departSpeed="10"/>
	<trip id="221" depart="1612.0" from="ce8" to="ce3" type="standard_car" departLane="random" departSpeed="10"/>
	<trip id="222" depart="1627.0" from="ce8" to="ce3" type="standard_car" departLane="random" departSpeed="10"/>
	<trip id="223" depart="1637.0" from="ce8" to="ce1" type="standard_car" departLane="random" departSpeed="10"/>
	<trip id="224" depart="1639.0" from="ce2" to="ce1" type="standard_car" departLane="random" departSpeed="10"/>
	<trip id="225" depart="1640.0" from="ce8" to="ce1" type="standard_car" departLane="random" departSpeed="10"/>
	<trip id="226" depart="1641.0" from="ce8" to="ce5" type="standard_car" departLane="random" departSpeed="10"/>
	<trip id="227" depart="1645.0" from="ce4" to="ce7" type="standard_car" departLane="random" departSpeed="10"/>
	<trip id="228" depart="1648.0" from="ce8" to="ce7" type="standard_car" departLane="random" departSpeed="10"/>
	<trip id="229" depart="1657.0" from="ce2" to="ce3" type="standard_car" departLane="random" departSpeed="10"/>
	<trip id="230" depart="1662.0" from="ce8" to="ce1" type="standard_car" departLane="random" departSpeed="10"/>
	<trip id="231" depart="1672.0" from="ce2" to="ce3" type="standard_car" departLane="random" departSpeed="10"/>
	<trip id="232" depart="1676.0" from="ce8" to="ce3" type="standard_car" departLane="random" departSpeed="10"/>
	<trip id="233" depart="1688.0" from="ce4" to="ce7" type="standard_car" departLane="random" departSpeed="10"/>
	<trip id="234" depart="1710.0" from="ce4" to="ce7" type="standard_car" departLane="random" departSpeed="10"/>
	<trip id="235" depart="1718.0" from="ce8" to="ce3" type="standard_car" departLane="random" departSpeed="10"/>
	<trip id="236" depart="1724.0" from="ce8" to="ce5" type="standard_car" departLane="random" departSpeed="10"/>
	<trip id="237" depart="1724.0" from="ce8" to="ce5" type="standard_car" departLane="random" departSpeed="10"/>
	<trip id="238" depart="1726.0" from="ce8" to="ce1" type="standard_car" departLane="random" departSpeed="10"/>
	<trip id="239" depart="1729.0" from="ce8" to="ce3" type="standard_car" departLane="random" departSpeed="10"/>
	<trip id="240" depart="1730.0" from="ce8" to="ce3" type="standard_car" departLane="random" departSpeed="10"/>
	<trip id="241" depart="1735.0" from="ce2" to="ce3" type="standard_car" departLane="random" departSpeed="10"/>
	<trip id="242" depart="1737.0" from="ce8" to="ce5" type="standard_car" departLane="random" departSpeed="10"/>
	<trip id="243" depart="1741.0" from="ce8" to="ce3" type="standard_car" departLane="random" departSpeed="10"/>
	<trip id="244" depart="1746.0" from="ce8" to="ce7" type="standard_car" departLane="random" departSpeed="10"/>
	<trip id="245" depart="1752.0" from="ce4" to="ce1" type="standard_car" departLane="random" departSpeed="10"/>
	<trip id="246" depart="1755.0" from="ce8" to="ce1" type="standard_car" departLane="random" departSpeed="10"/>
	<trip id="247" depart="1760.0" from="ce6" to="ce3" type="standard_car" departLane="random" departSpeed="10"/>
	<trip id="248" depart="1764.0" from="ce8" to="ce1" type="standard_car" departLane="random" departSpeed="10"/>
	<trip id="249" depart="1766.0" from="ce8" to="ce5" type="standard_car" departLane="random" departSpeed="10"/>
	<trip id="250" depart="1768.0" from="ce2" to="ce1" type="standard_car" departLane="random" departSpeed="10"/>
	<trip id="251" depart="1780.0" from="ce8" to="ce1" type="standard_car" departLane="random" departSpeed="10"/>
	<trip id="252" depart="1792.0" from="ce8" to="ce5" type="standard_car" departLane="random" departSpeed="10"/>
	<trip id="253" depart="1796.0" from="ce8" to="ce1" type="standard_car" departLane="random" departSpeed="10"/>
	<trip id="254" depart="1802.0" from="ce4" to="ce1" type="standard_car" departLane="random" departSpeed="10"/>
	<trip id="255" depart="1810.0" from="ce4" to="ce7" type="standard_car" departLane="random" departSpeed="10"/>
	<trip id="256" depart="1820.0" from="ce4" to="ce7" type="standard_car" departLane="random" departSpeed="10"/>
	<trip id="257" depart="1821.0" from="ce8" to="ce1" type="standard_car" departLane="random" departSpeed="10"/>
	<trip id="258" depart="1822.0" from="ce2" to="ce3" type="standard_car" departLane="random" departSpeed="10"/>
	<trip id="259" depart="1829.0" from="ce8" to="ce5" type="standard_car" departLane="random" departSpeed="10"/>
	<trip id="260" depart="1838.0" from="ce4" to="ce5" type="standard_car" departLane="random" departSpeed="10"/>
	<trip id="261" depart="1839.0" from="ce8" to="ce5" type="standard_car" departLane="random" departSpeed="10"/>
	<trip id="262" depart="1851.0" from="ce8" to="ce5" type="standard_car" departLane="random" departSpeed="10"/>
	<trip id="263" depart="1858.0" from="ce2" to="ce5" type="standard_car" departLane="random" departSpeed="10"/>
	<trip id="264" depart="1860.0" from="ce2" to="ce1" type="standard_car" departLane="random" departSpeed="10"/>
	<trip id="265" depart="1897.0" from="ce8" to="ce1" type="standard_car" departLane="random" departSpeed="10"/>
	<trip id="266" depart="1901.0" from="ce8" to="ce3" type="standard_car" departLane="random" departSpeed="10"/>
	<trip id="267" depart="1903.0" from="ce8" to="ce5" type="standard_car" departLane="random" departSpeed="10"/>
	<trip id="268" depart="1922.0" from="ce4" to="ce1" type="standard_car" departLane="random" departSpeed="10"/>
	<trip id="269" depart="1925.0" from="ce8" to="ce3" type="standard_car" departLane="random" departSpeed="10"/>
	<trip id="270" depart="1925.0" from="ce8" to="ce1" type="standard_car" departLane="random" departSpeed="10"/>