<?xml version="1.0" ?>
<routes>
	<vType accel="1.0" decel="4.5" id="standard_car" length="5.0" minGap="2.5" maxSpeed="25" sigma="0.5"/>
	<trip id="0" depart="1.0" from="ce6" to="ce3" type="standard_car" departLane="random" departSpeed="10"/>
	<trip id="1" depart="6.0" from="ce4" to="ce7" type="standard_car" departLane="random" departSpeed="10"/>
	<trip id="2" depart="8.0" from="ce6" to="ce5" type="standard_car" departLane="random" departSpeed="10"/>
	<trip id="3" depart="14.0" from="ce6" to="ce7" type="standard_car" departLane="random" departSpeed="10"/>
	<trip id="4" depart="19.0" from="ce2" to="ce3" type="standard_car" departLane="random" departSpeed="10"/>
	<trip id="5" depart="24.0" from="ce2" to="ce7" type="standard_car" departLane="random" departSpeed="10"/>
	<trip id="6" depart="35.0" from="ce6" to="ce3" type="standard_car" departLane="random" departSpeed="10"/>
	<trip id="7" depart="45.0" from="ce6" to="ce7" type="standard_car" departLane="random" departSpeed="10"/>
	<trip id="8" depart="46.0" from="ce2" to="ce5" type="standard_car" departLane="random" departSpeed="10"/>
	<trip id="9" depart="47.0" from="ce2" to="ce5" type="standard_car" departLane="random" departSpeed="10"/>
	<trip id="10" depart="51.0" from="ce6" to="ce7" type="standard_car" departLane="random" departSpeed="10"/>
	<trip id="11" depart="70.0" from="ce6" to="ce1" type="standard_car" departLane="random" departSpeed="10"/>
	<trip id="12" depart="73.0" from="ce4" to="ce5" type="standard_car" departLane="random" departSpeed="10"/>
	<trip id="13" depart="79.0" from="ce6" to="ce5" type="standard_car" departLane="random" departSpeed="10"/>
	<trip id="14" depart="83.0" from="ce4" to="ce5" type="standard_car" departLane="random" departSpeed="10"/>
	<trip id="15" depart="88.0" from="ce2" to="ce3" type="standard_car" departLane="random" departSpeed="10"/>
	<trip id="16" depart="94.0" from="ce6" to="ce3" type="standard_car" departLane="random" departSpeed="10"/>
	<trip id="17" depart="99.0" from="ce2" to="ce7" type="standard_car" departLane="random" departSpeed="10"/>
	<trip id="18" depart="105.0" from="ce6" to="ce5" type="standard_car" departLane="random" departSpeed="10"/>
	<trip id="19" depart="112.0" from="ce8" to="ce7" type="standard_car" departLane="random" departSpeed="10"/>
	<trip id="20" depart="128.0" from="ce4" to="ce1" type="standard_car" departLane="random" departSpeed="10"/>
	<trip id="21" depart="130.0" from="ce4" to="ce7" type="standard_car" departLane="random" departSpeed="10"/>
	<trip id="22" depart="138.0" from="ce4" to="ce7" type="standard_car" departLane="random" departSpeed="10"/>
	<trip id="23" depart="154.0" from="ce6" to="ce7" type="standard_car" departLane="random" departSpeed="10"/>
	<trip id="24" depart="168.0" from="ce6" to="ce3" type="standard_car" departLane="random" departSpeed="10"/>
	<trip id="25" depart="172.0" from="ce2" to="ce3" type="standard_car" departLane="random" departSpeed="10"/>
	<trip id="26" depart="184.0" from="ce4" to="ce5" type="standard_car" departLane="random" departSpeed="10"/>
	<trip id="27" depart="185.0" from="ce4" to="ce5" type="standard_car" departLane="random" departSpeed="10"/>
	<trip id="28" depart="194.0" from="ce4" to="ce7" type="standard_car" departLane="random" departSpeed="10"/>
	<trip id="29" depart="210.0" from="ce6" to="ce1" type="standard_car" departLane="random" departSpeed="10"/>
	<trip id="30" depart="215.0" from="ce6" to="ce3" type="standard_car" departLane="random" departSpeed="10"/>
	<trip id="31" depart="216.0" from="ce2" to="ce3" type="standard_car" departLane="random" departSpeed="10"/>
	<trip id="32" depart="217.0" from="ce4" to="ce5" type="standard_car" departLane="random" departSpeed="10"/>
	<trip id="33" depart="221.0" from="ce2" to="ce3" type="standard_car" departLane="random" departSpeed="10"/>
	<trip id="34" depart="228.0" from="ce2" to="ce5" type="standard_car" departLane="random" departSpeed="10"/>
	<trip id="35" depart="248.0" from="ce2" to="ce3" type="standard_car" departLane="random" departSpeed="10"/>
	<trip id="36" depart="257.0" from="ce2" to="ce3" type="standard_car" departLane="random" departSpeed="10"/>
	<trip id="37" depart="271.0" from="ce2" to="ce1" type="standard_car" departLane="random" departSpeed="10"/>
	<trip id="38" depart="281.0" from="ce8" to="ce3" type="standard_car" departLane="random" departSpeed="10"/>
	<trip id="39" depart="291.0" from="ce8" to="ce5" type="standard_car" departLane="random" departSpeed="10"/>
	<trip id="40" depart="294.0" from="ce6" to="ce1" type="standard_car" departLane="random" departSpeed="10"/>
	<trip id="41" depart="294.0" from="ce6" to="ce1" type="standard_car" departLane="random" departSpeed="10"/>
	<trip id="42" depart="298.0" from="ce6" to="ce3" type="standard_car" departLane="random" departSpeed="10"/>
	<trip id="43" depart="299.0" from="ce2" to="ce7" type="standard_car" departLane="random" departSpeed="10"/>
	<trip id="44" depart="306.0" from="ce8" to="ce5" type="standard_car" departLane="random" departSpeed="10"/>
	<trip id="45" depart="309.0" from="ce4" to="ce7" type="standard_car" departLane="random" departSpeed="10"/>
	<trip id="46" depart="311.0" from="ce8" to="ce1" type="standard_car" departLane="random" departSpeed="10"/>
	<trip id="47" depart="328.0" from="ce6" to="ce1" type="standard_car" departLane="random" departSpeed="10"/>
	<trip id="48" depart="329.0" from="ce4" to="ce3" type="standard_car" departLane="random" departSpeed="10"/>
	<trip id="49" depart="339.0" from="ce4" to="ce5" type="standard_car" departLane="random" departSpeed="10"/>
	<trip id="50" depart="351.0" from="ce4" to="ce5" type="standard_car" departLane="random" departSpeed="10"/>
	<trip id="51" depart="363.0" from="ce6" to="ce5" type="standard_car" departLane="random" departSpeed="10"/>
	<trip id="52" depart="376.0" from="ce6" to="ce3" type="standard_car" departLane="random" departSpeed="10"/>
	<trip id="53" depart="387.0" from="ce4" to="ce5" type="standard_car" departLane="random" departSpeed="10"/>
	<trip id="54" depart="400.0" from="ce6" to="ce3" type="standard_car" departLane="random" departSpeed="10"/>
	<trip id="55" depart="401.0" from="ce4" to="ce1" type="standard_car" departLane="random" departSpeed="10"/>
	<trip id="56" depart="402.0" from="ce4" to="ce1" type="standard_car" departLane="random" departSpeed="10"/>
	<trip id="57" depart="407.0" from="ce4" to="ce7" type="standard_car" departLane="random" departSpeed="10"/>
	<trip id="58" depart="431.0" from="ce4" to="ce7" type="standard_car" departLane="random" departSpeed="10"/>
	<trip id="59" depart="445.0" from="ce2" to="ce3" type="standard_car" departLane="random" departSpeed="10"/>
	<trip id="60" depart="447.0" from="ce8" to="ce3" type="standard_car" departLane="random" departSpeed="10"/>
	<trip id="61" depart="454.0" from="ce4" to="ce3" type="standard_car" departLane="random" departSpeed="10"/>
	<trip id="62" depart="464.0" from="ce2" to="ce7" type="standard_car" departLane="random" departSpeed="10"/>
	<trip id="63" depart="478.0" from="ce4" to="ce1" type="standard_car" departLane="random" departSpeed="10"/>
	<trip id="64" depart="484.0" from="ce2" to="ce1" type="standard_car" departLane="random" departSpeed="10"/>
	<trip id="65" depart="491.0" from="ce2" to="ce5" type="standard_car" departLane="random" departSpeed="10"/>
	<trip id="66" depart="493.0" from="ce6" to="ce7" type="standard_car" departLane="random" departSpeed="10"/>
	<trip id="67" depart="497.0" from="ce8" to="ce5" type="standard_car" departLane="random" departSpeed="10"/>
	<trip id="68" depart="514.0" from="ce4" to="ce5" type="standard_car" departLane="random" departSpeed="10"/>
	<trip id="69" depart="519.0" from="ce6" to="ce3" type="standard_car" departLane="random" departSpeed="10"/>
	<trip id="70" depart="557.0" from="ce6" to="ce7" type="standard_car" departLane="random" departSpeed="10"/>
	<trip id="71" depart="569.0" from="ce6" to="ce5" type="standard_car" departLane="random" departSpeed="10"/>
	<trip id="72" depart="570.0" from="ce2" to="ce3" type="standard_car" departLane="random" departSpeed="10"/>
	<trip id="73" depart="575.0" from="ce6" to="ce7" type="standard_car" departLane="random" departSpeed="10"/>
	<trip id="74" depart="580.0" from="ce4" to="ce1" type="standard_car" departLane="random" departSpeed="10"/>
	<trip id="75" depart="596.0" from="ce8" to="ce3" type="standard_car" departLane="random" departSpeed="10"/>
	<trip id="76" depart="596.0" from="ce4" to="ce7" type="standard_car" departLane="random" departSpeed="10"/>
	<trip id="77" depart="596.0" from="ce6" to="ce7" type="standard_car" departLane="random" departSpeed="10"/>
	<trip id="78" depart="598.0" from="ce4" to="ce1" type="standard_car" departLane="random" departSpeed="10"/>
	<trip id="79" depart="606.0" from="ce2" to="ce7" type="standard_car" departLane="random" departSpeed="10"/>
	<trip id="80" depart="613.0" from="ce2" to="ce3" type="standard_car" departLane="random" departSpeed="10"/>
	<trip id="81" depart="622.0" from="ce6" to="ce1" type="standard_car" departLane="random" departSpeed="10"/>
	<trip id="82" depart="639.0" from="ce2" to="ce7" type="standard_car" departLane="random" departSpeed="10"/>
	<trip id="83" depart="640.0" from="ce4" to="ce7" type="standard_car" departLane="random" departSpeed="10"/>
	<trip id="84" depart="653.0" from="ce4" to="ce1" type="standard_car" departLane="random" departSpeed="10"/>
	<trip id="85" depart="676.0" from="ce4" to="ce1" type="standard_car" departLane="random" departSpeed="10"/>
	<trip id="86" depart="678.0" from="ce2" to="ce1" type="standard_car" departLane="random" departSpeed="10"/>
	<trip id="87" depart="679.0" from="ce2" to="ce5" type="standard_car" departLane="random" departSpeed="10"/>
	<trip id="88" depart="682.0" from="ce2" to="ce7" type="standard_car" departLane="random" departSpeed="10"/>
	<trip id="89" depart="685.0" from="ce2" to="ce5" type="standard_car" departLane="random" departSpeed="10"/>
	<trip id="90" depart="686.0" from="ce6" to="ce1" type="standard_car" departLane="random" departSpeed="10"/>
	<trip id="91" depart="686.0" from="ce8" to="ce3" type="standard_car" departLane="random" departSpeed="10"/>
	<trip id="92" depart="692.0" from="ce8" to="ce7" type="standard_car" departLane="random" departSpeed="10"/>
	<trip id="93" depart="703.0" from="ce4" to="ce1" type="standard_car" departLane="random" departSpeed="10"/>
	<trip id="94" depart="708.0" from="ce6" to="ce1" type="standard_car" departLane="random" departSpeed="10"/>
	<trip id="95" depart="728.0" from="ce6" to="ce7" type="standard_car" departLane="random" departSpeed="10"/>
	<trip id="96" depart="731.0" from="ce6" to="ce3" type="standard_car" departLane="random" departSpeed="10"/>
	<trip id="97" depart="736.0" from="ce6" to="ce5" type="standard_car" departLane="random" departSpeed="10"/>
	<trip id="98" depart="743.0" from="ce2" to="ce7" type="standard_car" departLane="random" departSpeed="10"/>
	<trip id="99" depart="744.0" from="ce6" to="ce7" type="standard_car" departLane="random" departSpeed="10"/>
	<trip id="100" depart="747.0" from="ce4" to="ce1" type="standard_car" departLane="random" departSpeed="10"/>
	<trip id="101" depart="748.0" from="ce6" to="ce3" type="standard_car" departLane="random" departSpeed="10"/>
	<trip id="102" depart="750.0" from="ce4" to="ce1" type="standard_car" departLane="random" departSpeed="10"/>
	<trip id="103" depart="760.0" from="ce4" to="ce1" type="standard_car" departLane="random" departSpeed="10"/>
	<trip id="104" depart="761.0" from="ce4" to="ce7" type="standard_car" departLane="random" departSpeed="10"/>
	<trip id="105" depart="767.0" from="ce4" to="ce7" type="standard_car" departLane="random" departSpeed="10"/>
	<trip id="106" depart="787.0" from="ce4" to="ce7" type="standard_car" departLane="random" departSpeed="10"/>
	<trip id="107" depart="787.0" from="ce4" to="ce1" type="standard_car" departLane="random" departSpeed="10"/>
	<trip id="108" depart="793.0" from="ce4" to="ce1" type="standard_car" departLane="random" departSpeed="10"/>
	<trip id="109" depart="797.0" from="ce4" to="ce7" type="standard_car" departLane="random" departSpeed="10"/>
	<trip id="110" depart="799.0" from="ce6" to="ce3" type="standard_car" departLane="random" departSpeed="10"/>
	<trip id="111" depart="805.0" from="ce4" to="ce7" type="standard_car" departLane="random" departSpeed="10"/>
	<trip id="112" depart="817.0" from="ce6" to="ce3" type="standard_car" departLane="random" departSpeed="10"/>
	<trip id="113" depart="832.0" from="ce4" to="ce5" type="standard_car" departLane="random" departSpeed="10"/>
	<trip id="114" depart="848.0" from="ce8" to="ce3" type="standard_car" departLane="random" departSpeed="10"/>
	<trip id="115" depart="863.0" from="ce8" to="ce7" type="standard_car" departLane="random" departSpeed="10"/>
	<trip id="116" depart="864.0" from="ce8" to="ce3" type="standard_car" departLane="random" departSpeed="10"/>
	<trip id="117" depart="871.0" from="ce6" to="ce1" type="standard_car" departLane="random" departSpeed="10"/>
	<trip id="118" depart="872.0" from="ce6" to="ce7" type="standard_car" departLane="random" departSpeed="10"/>
	<trip id="119" depart="879.0" from="ce4" to="ce7" type="standard_car" departLane="random" departSpeed="10"/>
	<trip id="120" depart="881.0" from="ce4" to="ce1" type="standard_car" departLane="random" departSpeed="10"/>
	<trip id="121" depart="884.0" from="ce4" to="ce1" type="standard_car" departLane="random" departSpeed="10"/>
	<trip id="122" depart="887.0" from="ce2" to="ce5" type="standard_car" departLane="random" departSpeed="10"/>
	<trip id="123" depart="904.0" from="ce2" to="ce7" type="standard_car" departLane="random" departSpeed="10"/>
	<trip id="124" depart="910.0" from="ce4" to="ce3" type="standard_car" departLane="random" departSpeed="10"/>
	<trip id="125" depart="913.0" from="ce4" to="ce1" type="standard_car" departLane="random" departSpeed="10"/>
	<trip id="126" depart="916.0" from="ce2" to="ce7" type="standard_car" departLane="random" departSpeed="10"/>
	<trip id="127" depart="927.0" from="ce2" to="ce5" type="standard_car" departLane="random" departSpeed="10"/>
	<trip id="128" depart="929.0" from="ce2" to="ce3" type="standard_car" departLane="random" departSpeed="10"/>
	<trip id="129" depart="933.0" from="ce4" to="ce7" type="standard_car" departLane="random" departSpeed="10"/>
	<trip id="130" depart="951.0" from="ce8" to="ce5" type="standard_car" departLane="random" departSpeed="10"/>
	<trip id="131" depart="954.0" from="ce4" to="ce1" type="standard_car" departLane="random" departSpeed="10"/>
	<trip id="132" depart="955.0" from="ce6" to="ce5" type="standard_car" departLane="random" departSpeed="10"/>
	<trip id="133" depart="957.0" from="ce2" to="ce3" type="standard_car" departLane="random" departSpeed="10"/>
	<trip id="134" depart="959.0" from="ce4" to="ce1" type="standard_car" departLane="random" departSpeed="10"/>
	<trip id="135" depart="973.0" from="ce4" to="ce5" type="standard_car" departLane="random" departSpeed="10"/>
	<trip id="136" depart="987.0" from="ce4" to="ce5" type="standard_car" departLane="random" departSpeed="10"/>
	<trip id="137" depart="989.0" from="ce2" to="ce3" type="standard_car" departLane="random" departSpeed="10"/>
	<trip id="138" depart="1001.0" from="ce6" to="ce7" type="standard_car" departLane="random" departSpeed="10"/>
	<trip id="139" depart="1003.0" from="ce4" to="ce3" type="standard_car" departLane="random" departSpeed="10"/>
	<trip id="140" depart="1004.0" from="ce8" to="ce5" type="standard_car" departLane="random" departSpeed="10"/>
	<trip id="141" depart="1025.0" from="ce4" to="ce5" type="standard_car" departLane="random" departSpeed="10"/>
	<trip id="142" depart="1027.0" from="ce4" to="ce7" type="standard_car" departLane="random" departSpeed="10"/>
	<trip id="143" depart="1053.0" from="ce8" to="ce3" type="standard_car" departLane="random" departSpeed="10"/>
	<trip id="144" depart="1061.0" from="ce8" to="ce1" type="standard_car" departLane="random" departSpeed="10"/>
	<trip id="145" depart="1061.0" from="ce2" to="ce3" type="standard_car" departLane="random" departSpeed="10"/>
	<trip id="146" depart="1063.0" from="ce2" to="ce7" type="standard_car" departLane="random" departSpeed="10"/>
	<trip id="147" depart="1064.0" from="ce4" to="ce3" type="standard_car" departLane="random" departSpeed="10"/>
	<trip id="148" depart="1066.0" from="ce4" to="ce7" type="standard_car" departLane="random" departSpeed="10"/>
	<trip id="149" depart="1066.0" from="ce4" to="ce1" type="standard_car" departLane="random" departSpeed="10"/>
	<trip id="150" depart="1068.0" from="ce4" to="ce3" type="standard_car" departLane="random" departSpeed="10"/>
	<trip id="151" depart="1076.0" from="ce6" to="ce7" type="standard_car" departLane="random" departSpeed="10"/>
	<trip id="152" depart="1082.0" from="ce4" to="ce5" type="standard_car" departLane="random" departSpeed="10"/>
	<trip id="153" depart="1087.0" from="ce8" to="ce1" type="standard_car" departLane="random" departSpeed="10"/>
	<trip id="154" depart="1089.0" from="ce4" to="ce5" type="standard_car" departLane="random" departSpeed="10"/>
	<trip id="155" depart="1100.0" from="ce4" to="ce3" type="standard_car" departLane="random" departSpeed="10"/>
	<trip id="156" depart="1113.0" from="ce2" to="ce3" type="standard_car" departLane="random" departSpeed="10"/>
	<trip id="157" depart="1144.0" from="ce4" to="ce5" type="standard_car" departLane="random" departSpeed="10"/>
	<trip id="158" depart="1147.0" from="ce2" to="ce5" type="standard_car" departLane="random" departSpeed="10"/>
	<trip id="159" depart="1156.0" from="ce6" to="ce3" type="standard_car" departLane="random" departSpeed="10"/>
	<trip id="160" depart="1156.0" from="ce8" to="ce1" type="standard_car" departLane="random" departSpeed="10"/>
	<trip id="161" depart="1179.0" from="ce8" to="ce5" type="standard_car" departLane="random" departSpeed="10"/>
	<trip id="162" depart="1189.0" from="ce6" to="ce3" type="standard_car" departLane="random" departSpeed="10"/>
	<trip id="163" depart="1191.0" from="ce4" to="ce7" type="standard_car" departLane="random" departSpeed="10"/>
	<trip id="164" depart="1195.0" from="ce2" to="ce7" type="standard_car" departLane="random" departSpeed="10"/>
	<trip id="165" depart="1212.0" from="ce4" to="ce5" type="standard_car" departLane="random" departSpeed="10"/>
	<trip id="166" depart="1218.0" from="ce4" to="ce3" type="standard_car" departLane="random" departSpeed="10"/>
	<trip id="167" depart="1226.0" from="ce8" to="ce5" type="standard_car" departLane="random" departSpeed="10"/>
	<trip id="168" depart="1231.0" from="ce4" to="ce5" type="standard_car" departLane="random" departSpeed="10"/>
	<trip id="169" depart="1234.0" from="ce4" to="ce1" type="standard_car" departLane="random" departSpeed="10"/>
	<trip id="170" depart="1239.0" from="ce4" to="ce7" type="standard_car" departLane="random" departSpeed="10"/>
	<trip id="171" depart="1246.0" from="ce4" to="ce5" type="standard_car" departLane="random" departSpeed="10"/>
	<trip id="172" depart="1249.0" from="ce2" to="ce5" type="standard_car" departLane="random" departSpeed="10"/>
	<trip id="173" depart="1252.0" from="ce2" to="ce7" type="standard_car" departLane="random" departSpeed="10"/>
	<trip id="174" depart="1254.0" from="ce6" to="ce1" type="standard_car" departLane="random" departSpeed="10"/>
	<trip id="175" depart="1256.0" from="ce6" to="ce1" type="standard_car" departLane="random" departSpeed="10"/>
	<trip id="176" depart="1261.0" from="ce6" to="ce5" type="standard_car" departLane="random" departSpeed="10"/>
	<trip id="177" depart="1268.0" from="ce4" to="ce7" type="standard_car" departLane="random" departSpeed="10"/>
	<trip id="178" depart="1277.0" from="ce2" to="ce3" type="standard_car" departLane="random" departSpeed="10"/>
	<trip id="179" depart="1281.0" from="ce4" to="ce5" type="standard_car" departLane="random" departSpeed="10"/>
	<trip id="180" depart="1283.0" from="ce8" to="ce5" type="standard_car" departLane="random" departSpeed="10"/>
	<trip id="181" depart="1288.0" from="ce6" to="ce1" type="standard_car" departLane="random" departSpeed="10"/>
	<trip id="182" depart="1296.0" from="ce4" to="ce7" type="standard_car" departLane="random" departSpeed="10"/>
	<trip id="183" depart="1300.0" from="ce6" to="ce1" type="standard_car" departLane="random" departSpeed="10"/>
	<trip id="184" depart="1305.0" from="ce2" to="ce5" type="standard_car" departLane="random" departSpeed="10"/>
	<trip id="185" depart="1309.0" from="ce6" to="ce1" type="standard_car" departLane="random" departSpeed="10"/>
	<trip id="186" depart="1313.0" from="ce8" to="ce3" type="standard_car" departLane="random" departSpeed="10"/>
	<trip id="187" depart="1315.0" from="ce6" to="ce3" type="standard_car" departLane="random" departSpeed="10"/>
	<trip id="188" depart="1315.0" from="ce4" to="ce1" type="standard_car" departLane="random" departSpeed="10"/>
	<trip id="189" depart="1316.0" from="ce4" to="ce1" type="standard_car" departLane="random" departSpeed="10"/>
	<trip id="190" depart="1326.0" from="ce4" to="ce3" type="standard_car" departLane="random" departSpeed="10"/>
	<trip id="191" depart="1335.0" from="ce6" to="ce7" type="standard_car" departLane="random" departSpeed="10"/>
	<trip id="192" depart="1337.0" from="ce4" to="ce5" type="standard_car" departLane="random" departSpeed="10"/>
	<trip id="193" depart="1337.0" from="ce6" to="ce3" type="standard_car" departLane="random" departSpeed="10"/>
	<trip id="194" depart="1341.0" from="ce4" to="ce5" type="standard_car" departLane="random" departSpeed="10"/>
	<trip id="195" depart="1345.0" from="ce6" to="ce3" type="standard_car" departLane="random" departSpeed="10"/>
	<trip id="196" depart="1354.0" from="ce4" to="ce5" type="standard_car" departLane="random" departSpeed="10"/>
	<trip id="197" depart="1365.0" from="ce2" to="ce7" type="standard_car" departLane="random" departSpeed="10"/>
	<trip id="198" depart="1367.0" from="ce2" to="ce3" type="standard_car" departLane="random" departSpeed="10"/>
	<trip id="199" depart="1370.0" from="ce4" to="ce7" type="standard_car" departLane="random" departSpeed="10"/>
	<trip id="200" depart="1380.0" from="ce6" to="ce5" type="standard_car" departLane="random" departSpeed="10"/>
	<trip id="201" depart="1394.0" from="ce4" to="ce7" type="standard_car" departLane="random" departSpeed="10"/>
	<trip id="202" depart="1398.0" from="ce8" to="ce1" type="standard_car" departLane="random" departSpeed="10"/>
	<trip id="203" depart="1422.0" from="ce8" to="ce1" type="standard_car" departLane="random" departSpeed="10"/>
	<trip id="204" depart="1436.0" from="ce6" to="ce3" type="standard_car" departLane="random" departSpeed="10"/>
	<trip id="205" depart="1436.0" from="ce2" to="ce7" type="standard_car" departLane="random" departSpeed="10"/>
	<trip id="206" depart="1464.0" from="ce6" to="ce1" type="standard_car" departLane="random" departSpeed="10"/>
	<trip id="207" depart="1465.0" from="ce6" to="ce3" type="standard_car" departLane="random" departSpeed="10"/>
	<trip id="208" depart="1468.0" from="ce6" to="ce1" type="standard_car" departLane="random" departSpeed="10"/>
	<trip id="209" depart="1477.0" from="ce6" to="ce1" type="standard_car" departLane="random" departSpeed="10"/>
	<trip id="210" depart="1481.0" from="ce4" to="ce7" type="standard_car" departLane="random" departSpeed="10"/>
	<trip id="211" depart="1491.0" from="ce4" to="ce5" type="standard_car" departLane="random" departSpeed="10"/>
	<trip id="212" depart="1507.0" from="ce2" to="ce5" type="standard_car" departLane="random" departSpeed="10"/>
	<trip id="213" depart="1518.0" from="ce2" to="ce3" type="standard_car" departLane="random" departSpeed="10"/>
	<trip id="214" depart="1526.0" from="ce8" to="ce5" type="standard_car" departLane="random" departSpeed="10"/>
	<trip id="215" depart="1526.0" from="ce6" to="ce3" type="standard_car" departLane="random" departSpeed="10"/>
	<trip id="216" depart="1528.0" from="ce6" to="ce7" type="standard_car" departLane="random" departSpeed="10"/>
	<trip id="217" depart="1529.0" from="ce2" to="ce7" type="standard_car" departLane="random" departSpeed="10"/>
	<trip id="218" depart="1532.0" from="ce6" to="ce5" type="standard_car" departLane="random" departSpeed="10"/>
	<trip id="219" depart="1532.0" from="ce2" to="ce3" type="standard_car" departLane="random" departSpeed="10"/>
	<trip id="220" depart="1559.0" from="ce6" to="ce7" type="standard_car" departLane="random" departSpeed="10"/>
	<trip id="221" depart="1560.0" from="ce6" to="ce7" type="standard_car" departLane="random" departSpeed="10"/>
	<trip id="222" depart="1572.0" from="ce6" to="ce3" type="standard_car" departLane="random" departSpeed="10"/>
	<trip id="223" depart="1577.0" from="ce4" to="ce5" type="standard_car" departLane="random" departSpeed="10"/>
	<trip id="224" depart="1589.0" from="ce6" to="ce7" type="standard_car" departLane="random" departSpeed="10"/>
	<trip id="225" depart="1589.0" from="ce6" to="ce1" type="standard_car" departLane="random" departSpeed="10"/>
	<trip id="226" depart="1597.0" from="ce2" to="ce5" type="standard_car" departLane="random" departSpeed="10"/>
	<trip id="227" depart="1605.0" from="ce6" to="ce3" type="standard_car" departLane="random" departSpeed="10"/>
	<trip id="228" depart="1605.0" from="ce2" to="ce7" type="standard_car" departLane="random" departSpeed="10"/>
	<trip id="229" depart="1608.0" from="ce4" to="ce5" type="standard_car" departLane="random" departSpeed="10"/>
	<trip id="230" depart="1610.0" from="ce6" to="ce1" type="standard_car" departLane="random" departSpeed="10"/>
	<trip id="231" depart="1615.0" from="ce2" to="ce7" type="standard_car" departLane="random" departSpeed="10"/>
	<trip id="232" depart="1617.0" from="ce4" to="ce5" type="standard_car" departLane="random" departSpeed="10"/>
	<trip id="233" depart="1619.0" from="ce8" to="ce3" type="standard_car" departLane="random" departSpeed="10"/>
	<trip id="234" depart="1629.0" from="ce2" to="ce5" type="standard_car" departLane="random" departSpeed="10"/>
	<trip id="235" depart="1654.0" from="ce6" to="ce3" type="standard_car" departLane="random" departSpeed="10"/>
	<trip id="236" depart="1662.0" from="ce8" to="ce7" type="standard_car" departLane="random" departSpeed="10"/>
	<trip id="237" depart="1687.0" from="ce6" to="ce1" type="standard_car" departLane="random" departSpeed="10"/>
	<trip id="238" depart="1690.0" from="ce6" to="ce1" type="standard_car" departLane="random" departSpeed="10"/>
	<trip id="239" depart="1691.0" from="ce4" to="ce5" type="standard_car" departLane="random" departSpeed="10"/>
	<trip id="240" depart="1696.0" from="ce6" to="ce1" type="standard_car" departLane="random" departSpeed="10"/>
	<trip id="241" depart="1698.0" from="ce8" to="ce3" type="standard_car" departLane="random" departSpeed="10"/>
	<trip id="242" depart="1702.0" from="ce6" to="ce1" type="standard_car" departLane="random" departSpeed="10"/>
	<trip id="243" depart="1702.0" from="ce4" to="ce1" type="standard_car" departLane="random" departSpeed="10"/>
	<trip id="244" depart="1721.0" from="ce6" to="ce1" type="standard_car" departLane="random" departSpeed="10"/>
	<trip id="245" depart="1722.0" from="ce8" to="ce3" type="standard_car" departLane="random" departSpeed="10"/>
	<trip id="246" depart="1745.0" from="ce6" to="ce1" type="standard_car" departLane="random" departSpeed="10"/>
	<trip id="247" depart="1746.0" from="ce8" to="ce3" type="standard_car" departLane="random" departSpeed="10"/>
	<trip id="248" depart="1747.0" from="ce4" to="ce1" type="standard_car" departLane="random" departSpeed="10"/>
	<trip id="249" depart="1758.0" from="ce4" to="ce7" type="standard_car" departLane="random" departSpeed="10"/>
	<trip id="250" depart="1776.0" from="ce6" to="ce7" type="standard_car" departLane="random" departSpeed="10"/>
	<trip id="251" depart="1776.0" from="ce2" to="ce3" type="standard_car" departLane="random" departSpeed="10"/>
	<trip id="252" depart="1781.0" from="ce4" to="ce5" type="standard_car" departLane="random" departSpeed="10"/>
	<trip id="253" depart="1788.0" from="ce4" to="ce7" type="standard_car" departLane="random" departSpeed="10"/>
	<trip id="254" depart="1789.0" from="ce2" to="ce1" type="standard_car" departLane="random" departSpeed="10"/>
	<trip id="255" depart="1792.0" from="ce4" to="ce7" type="standard_car" departLane="random" departSpeed="10"/>
	<trip id="256" depart="1804.0" from="ce6" to="ce3" type="standard_car" departLane="random" departSpeed="10"/>
	<trip id="257" depart="1816.0" from="ce8" to="ce5" type="standard_car" departLane="random" departSpeed="10"/>
	<trip id="258" depart="1834.0" from="ce4" to="ce5" type="standard_car" departLane="random" departSpeed="10"/>
	<trip id="259" depart="1837.0" from="ce4" to="ce7" type="standard_car" departLane="random" departSpeed="10"/>
	<trip id="260" depart="1842.0" from="ce4" to="ce1" type="standard_car" departLane="random" departSpeed="10"/>
	<trip id="261" depart="1852.0" from="ce4" to="ce3" type="standard_car" departLane="random" departSpeed="10"/>
	<trip id="262" depart="1853.0" from="ce6" to="ce7" type="standard_car" departLane="random" departSpeed="10"/>
	<trip id="263" depart="1856.0" from="ce2" to="ce1" type="standard_car" departLane="random" departSpeed="10"/>
	<trip id="264" depart="1860.0" from="ce4" to="ce7" type="standard_car" departLane="random" departSpeed="10"/>
	<trip id="265" depart="1866.0" from="ce6" to="ce1" type="standard_car" departLane="random" departSpeed="10"/>
	<trip id="266" depart="1871.0" from="ce4" to="ce1" type="standard_car" departLane="random" departSpeed="10"/>
	<trip id="267" depart="1892.0" from="ce6" to="ce3" type="standard_car" departLane="random" departSpeed="10"/>
	<trip id="268" depart="1894.0" from="ce6" to="ce3" type="standard_car" departLane="random" departSpeed="10"/>
	<trip id="269" depart="1896.0" from="ce2" to="ce3" type="standard_car" departLane="random" departSpeed="10"/>
	<trip id="270" depart="1898.0" from="ce2" to="ce3" type="standard_car" departLane="random" departSpeed="10"/>